4idn_ligand
  -I-interpret- 

 48 50  0  0  0  0  0  0  0  0999 V2000
   21.3790   -2.4220  -49.0530 P   0  0  0  0  0
   20.9210   -3.0770  -50.3380 O   0  0  0  0  0
   20.4870   -1.3360  -48.5020 O   0  0  0  0  0
   21.5910   -3.3990  -47.9210 O   0  0  0  0  0
   22.8050   -1.7560  -49.3550 N   0  0  0  0  0
   24.0300   -2.4890  -50.0740 P   0  0  0  0  0
   23.5070   -3.1370  -51.2930 O   0  0  0  0  0
   24.7480   -3.3640  -49.1120 O   0  0  0  0  0
   25.0330   -1.3760  -50.4950 O   0  0  0  0  0
   25.0650   -0.6560  -51.8650 P   0  0  0  0  0
   25.7660   -1.5420  -52.8350 O   0  0  0  0  0
   23.7070   -0.1930  -52.2750 O   0  0  0  0  0
   25.9220    0.6670  -51.7280 O   0  0  0  0  0
   25.7610    1.5150  -50.6010 C   0  0  0  0  0
   26.8230    2.6090  -50.5690 C   0  0  0  0  0
   28.1150    2.0390  -50.2520 O   0  0  0  0  0
   27.0350    3.4150  -51.8520 C   0  0  0  0  0
   27.1140    4.8150  -51.5030 O   0  0  0  0  0
   28.3790    2.8980  -52.3710 C   0  0  0  0  0
   29.0610    3.8830  -53.1220 O   0  0  0  0  0
   29.1130    2.6530  -51.0630 C   0  0  0  0  0
   30.1940    1.6700  -51.0880 N   0  0  0  0  0
   30.3520    0.6340  -51.9800 C   0  0  0  0  0
   31.3910   -0.1090  -51.7150 N   0  0  0  0  0
   31.9570    0.4490  -50.5810 C   0  0  0  0  0
   33.0980    0.0480  -49.8430 C   0  0  0  0  0
   33.8690   -0.9120  -50.0500 O   0  0  0  0  0
   33.3160    0.8910  -48.7530 N   0  0  0  0  0
   32.5230    1.9680  -48.4150 C   0  0  0  0  0
   32.8980    2.6640  -47.3180 N   0  0  0  0  0
   31.4510    2.3450  -49.1060 N   0  0  0  0  0
   31.2230    1.5430  -50.1740 C   0  0  0  0  0
   21.5564   -3.7481  -50.5979 H   0  0  0  0  0
   22.1559   -4.1154  -48.2197 H   0  0  0  0  0
   22.9417   -0.7876  -49.0654 H   0  0  0  0  0
   25.0419   -2.8406  -48.3628 H   0  0  0  0  0
   23.3407    0.3686  -51.5880 H   0  0  0  0  0
   25.8589    0.9120  -49.6982 H   0  0  0  0  0
   24.7804    1.9872  -50.6613 H   0  0  0  0  0
   26.4303    3.2943  -49.8178 H   0  0  0  0  0
   26.2417    3.3108  -52.5922 H   0  0  0  0  0
   27.2472    5.3350  -52.2989 H   0  0  0  0  0
   28.2928    2.0353  -53.0316 H   0  0  0  0  0
   29.8970    3.5263  -53.4311 H   0  0  0  0  0
   29.5581    3.5986  -50.7533 H   0  0  0  0  0
   29.6801    0.4534  -52.8191 H   0  0  0  0  0
   33.7257    2.3816  -46.7931 H   0  0  0  0  0
   30.8680    3.1452  -48.8604 H   0  0  0  0  0
  1  2  1  0  0  0
  1  3  2  0  0  0
  1  4  1  0  0  0
  1  5  1  0  0  0
  5  6  1  0  0  0
  6  7  2  0  0  0
  6  8  1  0  0  0
  6  9  1  0  0  0
  9 10  1  0  0  0
 10 11  2  0  0  0
 10 12  1  0  0  0
 10 13  1  0  0  0
 13 14  1  0  0  0
 14 15  1  0  0  0
 15 16  1  0  0  0
 15 17  1  0  0  0
 16 21  1  0  0  0
 17 18  1  0  0  0
 17 19  1  0  0  0
 19 20  1  0  0  0
 19 21  1  0  0  0
 21 22  1  0  0  0
 22 23  4  0  0  0
 22 32  4  0  0  0
 23 24  4  0  0  0
 24 25  4  0  0  0
 25 26  1  0  0  0
 25 32  4  0  0  0
 26 27  2  0  0  0
 26 28  1  0  0  0
 28 29  4  0  0  0
 29 30  2  0  0  0
 29 31  1  0  0  0
 31 32  1  0  0  0
  2 33  1  0  0  0
  4 34  1  0  0  0
  5 35  1  0  0  0
  8 36  1  0  0  0
 12 37  1  0  0  0
 14 38  1  0  0  0
 14 39  1  0  0  0
 15 40  1  0  0  0
 17 41  1  0  0  0
 18 42  1  0  0  0
 19 43  1  0  0  0
 20 44  1  0  0  0
 21 45  1  0  0  0
 23 46  1  0  0  0
 30 47  1  0  0  0
 31 48  1  0  0  0
M  END
$$$$
