### 
### Created by X-TOOL on Mon Sep 10 21:13:13 2018
### 

@<TRIPOS>MOLECULE
4idn_ligand
   46    48     1     0     0
SMALL
GAST_HUCK


@<TRIPOS>ATOM
      1 PG         21.3790   -2.4220  -49.0530 P.3       1 GNP         0.1803
      2 O1G        20.9210   -3.0770  -50.3380 O.co2     1 GNP        -0.5454
      3 O2G        20.4870   -1.3360  -48.5020 O.co2     1 GNP        -0.5454
      4 O3G        21.5910   -3.3990  -47.9210 O.co2     1 GNP        -0.5454
      5 N3B        22.8050   -1.7560  -49.3550 N.am      1 GNP        -0.1803
      6 PB         24.0300   -2.4890  -50.0740 P.3       1 GNP         0.2543
      7 O1B        23.5070   -3.1370  -51.2930 O.co2     1 GNP        -0.6257
      8 O2B        24.7480   -3.3640  -49.1120 O.co2     1 GNP        -0.6257
      9 O3A        25.0330   -1.3760  -50.4950 O.3       1 GNP        -0.1431
     10 PA         25.0650   -0.6560  -51.8650 P.3       1 GNP         0.2949
     11 O1A        25.7660   -1.5420  -52.8350 O.co2     1 GNP        -0.6129
     12 O2A        23.7070   -0.1930  -52.2750 O.co2     1 GNP        -0.6129
     13 O5'        25.9220    0.6670  -51.7280 O.3       1 GNP        -0.2478
     14 C5'        25.7610    1.5150  -50.6010 C.3       1 GNP         0.1128
     15 C4'        26.8230    2.6090  -50.5690 C.3       1 GNP         0.1190
     16 O4'        28.1150    2.0390  -50.2520 O.3       1 GNP        -0.3347
     17 C3'        27.0350    3.4150  -51.8520 C.3       1 GNP         0.1151
     18 O3'        27.1140    4.8150  -51.5030 O.3       1 GNP        -0.3864
     19 C2'        28.3790    2.8980  -52.3710 C.3       1 GNP         0.1407
     20 O2'        29.0610    3.8830  -53.1220 O.3       1 GNP        -0.3835
     21 C1'        29.1130    2.6530  -51.0630 C.3       1 GNP         0.2218
     22 N9         30.1940    1.6700  -51.0880 N.pl3     1 GNP        -0.0954
     23 C8         30.3520    0.6340  -51.9800 C.2       1 GNP         0.1855
     24 N7         31.3910   -0.1090  -51.7150 N.2       1 GNP        -0.1929
     25 C5         31.9570    0.4490  -50.5810 C.2       1 GNP         0.2558
     26 C6         33.0980    0.0480  -49.8430 C.2       1 GNP         0.2628
     27 O6         33.8690   -0.9120  -50.0500 O.2       1 GNP        -0.3594
     28 N1         33.3160    0.8910  -48.7530 N.am      1 GNP        -0.2478
     29 C2         32.5230    1.9680  -48.4150 C.cat     1 GNP         0.2041
     30 N2         32.8980    2.6640  -47.3180 N.pl3     1 GNP        -0.3327
     31 N3         31.4510    2.3450  -49.1060 N.pl3     1 GNP        -0.1901
     32 C4         31.2230    1.5430  -50.1740 C.2       1 GNP         0.3268
     33 H1         22.9391   -0.8066  -49.0711 H         1 GNP         0.2132
     34 H2         25.8418    0.9114  -49.6850 H         1 GNP         0.0648
     35 H3         24.7666    1.9833  -50.6450 H         1 GNP         0.0648
     36 H4         26.5331    3.3127  -49.7748 H         1 GNP         0.0651
     37 H5         26.2302    3.2466  -52.5827 H         1 GNP         0.0648
     38 H6         27.8424    4.9514  -50.9086 H         1 GNP         0.2100
     39 H7         28.2644    1.9793  -52.9650 H         1 GNP         0.0677
     40 H8         29.2226    4.6420  -52.5739 H         1 GNP         0.2101
     41 H9         29.4781    3.6040  -50.6480 H         1 GNP         0.1021
     42 H10        29.6807    0.4535  -52.8183 H         1 GNP         0.1823
     43 H11        34.1075    0.7000  -48.1724 H         1 GNP         0.1819
     44 H12        32.3478    3.4794  -47.0124 H         1 GNP         0.1774
     45 H13        33.7338    2.3788  -46.7880 H         1 GNP         0.1774
     46 H14        30.8623    3.1530  -48.8580 H         1 GNP         0.2519
@<TRIPOS>BOND
     1    1    2 ar 
     2    1    3 ar 
     3    1    4 ar 
     4    1    5 am 
     5    5    6 1  
     6    6    7 ar 
     7    6    8 ar 
     8    6    9 1  
     9    9   10 1  
    10   10   11 ar 
    11   10   12 ar 
    12   10   13 1  
    13   13   14 1  
    14   14   15 1  
    15   15   16 1  
    16   15   17 1  
    17   16   21 1  
    18   17   18 1  
    19   17   19 1  
    20   19   20 1  
    21   19   21 1  
    22   21   22 1  
    23   22   23 1  
    24   22   32 1  
    25   23   24 2  
    26   24   25 1  
    27   25   26 1  
    28   25   32 2  
    29   26   27 2  
    30   26   28 am 
    31   28   29 ar 
    32   29   30 ar 
    33   29   31 ar 
    34   31   32 1  
    35    5   33 1  
    36   14   34 1  
    37   14   35 1  
    38   15   36 1  
    39   17   37 1  
    40   18   38 1  
    41   19   39 1  
    42   20   40 1  
    43   21   41 1  
    44   23   42 1  
    45   28   43 1  
    46   30   44 1  
    47   30   45 1  
    48   31   46 1  
@<TRIPOS>SUBSTRUCTURE
     1 GNP         1

