### 
### Created by X-TOOL on Mon Sep 10 21:13:08 2018
### 

@<TRIPOS>MOLECULE
4ajl_ligand
   39    40     1     0     0
SMALL
GAST_HUCK


@<TRIPOS>ATOM
      1 C1         16.2370  -11.8330    6.4570 C.3       1 88W        -0.0451
      2 C14        21.9710   -5.4350    1.0480 C.ar      1 88W        -0.0688
      3 C13        20.6940   -5.3690    1.5830 C.ar      1 88W        -0.0494
      4 C2         15.1130  -11.5940    5.4940 C.3       1 88W         0.0284
      5 C17        19.8240   -6.7590   -0.2020 C.ar      1 88W        -0.0301
      6 C15        22.1870   -6.1640   -0.1250 C.ar      1 88W         0.0090
      7 C12        19.6270   -6.0440    0.9790 C.ar      1 88W         0.0572
      8 C16        21.1030   -6.8040   -0.7380 C.ar      1 88W         0.0395
      9 C19        23.2580   -6.9810   -1.9050 C.2       1 88W         0.0882
     10 C9         17.4640   -7.0730    1.6740 C.2       1 88W         0.2045
     11 C4         15.0770   -9.6280    4.0110 C.2       1 88W         0.2575
     12 C21        24.3400   -7.2370   -2.9020 C.3       1 88W         0.0079
     13 C8         16.2750   -6.7850    2.5720 C.3       1 88W         0.0629
     14 C7         15.1410   -7.7760    2.3850 C.3       1 88W         0.0484
     15 N20        23.4010   -6.2910   -0.7980 N.2       1 88W        -0.3185
     16 N3         15.5460  -10.8590    4.3030 N.am      1 88W        -0.2734
     17 N11        18.3620   -6.0610    1.6190 N.am      1 88W        -0.2377
     18 N6         15.5120   -9.1100    2.8430 N.am      1 88W        -0.2709
     19 O10        17.5890   -8.1430    1.0620 O.2       1 88W        -0.3853
     20 O5         14.3000   -9.0200    4.7580 O.2       1 88W        -0.4008
     21 S18        21.6290   -7.5680   -2.2090 S.3       1 88W        -0.0003
     22 H1         15.8604  -12.3861    7.3301 H         1 88W         0.0249
     23 H2         16.6505  -10.8678    6.7848 H         1 88W         0.0249
     24 H3         17.0247  -12.4205    5.9627 H         1 88W         0.0249
     25 H4         22.7948   -4.9258    1.5349 H         1 88W         0.0532
     26 H5         20.5195   -4.7871    2.4808 H         1 88W         0.0460
     27 H6         14.3295  -11.0130    6.0024 H         1 88W         0.0514
     28 H7         14.7037  -12.5656    5.1803 H         1 88W         0.0514
     29 H8         18.9991   -7.2666   -0.6887 H         1 88W         0.0438
     30 H9         25.2820   -6.7981   -2.5415 H         1 88W         0.0497
     31 H10        24.0673   -6.7799   -3.8646 H         1 88W         0.0497
     32 H11        24.4678   -8.3215   -3.0341 H         1 88W         0.0497
     33 H12        15.9003   -5.7759    2.3457 H         1 88W         0.0527
     34 H13        16.6080   -6.8261    3.6196 H         1 88W         0.0527
     35 H14        14.8820   -7.8246    1.3170 H         1 88W         0.0542
     36 H15        14.2679   -7.4317    2.9588 H         1 88W         0.0542
     37 H16        16.2100  -11.2829    3.6871 H         1 88W         0.1845
     38 H17        18.0996   -5.2186    2.0896 H         1 88W         0.2244
     39 H18        16.1138   -9.6640    2.2677 H         1 88W         0.1847
@<TRIPOS>BOND
     1    4    1 1  
     2    3    2 ar 
     3    2    6 ar 
     4    7    3 ar 
     5   16    4 1  
     6    7    5 ar 
     7    5    8 ar 
     8    8    6 ar 
     9    6   15 1  
    10   17    7 1  
    11    8   21 1  
    12    9   12 1  
    13    9   15 2  
    14   21    9 1  
    15   13   10 1  
    16   10   17 am 
    17   10   19 2  
    18   11   16 am 
    19   18   11 am 
    20   11   20 2  
    21   14   13 1  
    22   14   18 1  
    23    1   22 1  
    24    1   23 1  
    25    1   24 1  
    26    2   25 1  
    27    3   26 1  
    28    4   27 1  
    29    4   28 1  
    30    5   29 1  
    31   12   30 1  
    32   12   31 1  
    33   12   32 1  
    34   13   33 1  
    35   13   34 1  
    36   14   35 1  
    37   14   36 1  
    38   16   37 1  
    39   17   38 1  
    40   18   39 1  
@<TRIPOS>SUBSTRUCTURE
     1 88W         1

