4ajl_ligand
  -I-interpret- 

 39 40  0  0  0  0  0  0  0  0999 V2000
   16.2370  -11.8330    6.4570 C   0  0  0  0  0
   21.9710   -5.4350    1.0480 C   0  0  0  0  0
   20.6940   -5.3690    1.5830 C   0  0  0  0  0
   15.1130  -11.5940    5.4940 C   0  0  0  0  0
   19.8240   -6.7590   -0.2020 C   0  0  0  0  0
   22.1870   -6.1640   -0.1250 C   0  0  0  0  0
   19.6270   -6.0440    0.9790 C   0  0  0  0  0
   21.1030   -6.8040   -0.7380 C   0  0  0  0  0
   23.2580   -6.9810   -1.9050 C   0  0  0  0  0
   17.4640   -7.0730    1.6740 C   0  0  0  0  0
   15.0770   -9.6280    4.0110 C   0  0  0  0  0
   24.3400   -7.2370   -2.9020 C   0  0  0  0  0
   16.2750   -6.7850    2.5720 C   0  0  0  0  0
   15.1410   -7.7760    2.3850 C   0  0  0  0  0
   23.4010   -6.2910   -0.7980 N   0  0  0  0  0
   15.5460  -10.8590    4.3030 N   0  0  0  0  0
   18.3620   -6.0610    1.6190 N   0  0  0  0  0
   15.5120   -9.1100    2.8430 N   0  0  0  0  0
   17.5890   -8.1430    1.0620 O   0  0  0  0  0
   14.3000   -9.0200    4.7580 O   0  0  0  0  0
   21.6290   -7.5680   -2.2090 S   0  0  0  0  0
   17.0168  -12.4152    5.9660 H   0  0  0  0  0
   16.6458  -10.8759    6.7810 H   0  0  0  0  0
   15.8626  -12.3811    7.3216 H   0  0  0  0  0
   22.7994   -4.9230    1.5376 H   0  0  0  0  0
   20.5185   -4.7839    2.4857 H   0  0  0  0  0
   14.3547  -10.9978    6.0015 H   0  0  0  0  0
   14.7320  -12.5633    5.1725 H   0  0  0  0  0
   18.9945   -7.2694   -0.6914 H   0  0  0  0  0
   24.7075   -6.2868   -3.2894 H   0  0  0  0  0
   25.1566   -7.7746   -2.4201 H   0  0  0  0  0
   23.9428   -7.8358   -3.7216 H   0  0  0  0  0
   15.8974   -5.7947    2.3175 H   0  0  0  0  0
   16.6131   -6.8567    3.6058 H   0  0  0  0  0
   14.9033   -7.8306    1.3226 H   0  0  0  0  0
   14.2869   -7.4362    2.9708 H   0  0  0  0  0
   16.2233  -11.2914    3.6748 H   0  0  0  0  0
   18.0943   -5.2017    2.0990 H   0  0  0  0  0
   16.1258   -9.6751    2.2562 H   0  0  0  0  0
  4  1  1  0  0  0
  3  2  4  0  0  0
  2  6  4  0  0  0
  7  3  4  0  0  0
 16  4  1  0  0  0
  7  5  4  0  0  0
  5  8  4  0  0  0
  8  6  4  0  0  0
  6 15  4  0  0  0
 17  7  1  0  0  0
  8 21  4  0  0  0
  9 12  1  0  0  0
  9 15  4  0  0  0
 21  9  4  0  0  0
 13 10  1  0  0  0
 10 17  1  0  0  0
 10 19  2  0  0  0
 11 16  1  0  0  0
 18 11  1  0  0  0
 11 20  2  0  0  0
 14 13  1  0  0  0
 14 18  1  0  0  0
  1 22  1  0  0  0
  1 23  1  0  0  0
  1 24  1  0  0  0
  2 25  1  0  0  0
  3 26  1  0  0  0
  4 27  1  0  0  0
  4 28  1  0  0  0
  5 29  1  0  0  0
 12 30  1  0  0  0
 12 31  1  0  0  0
 12 32  1  0  0  0
 13 33  1  0  0  0
 13 34  1  0  0  0
 14 35  1  0  0  0
 14 36  1  0  0  0
 16 37  1  0  0  0
 17 38  1  0  0  0
 18 39  1  0  0  0
M  END
$$$$
