5mnn_ligand
  -I-interpret- 

 22 22  0  0  0  0  0  0  0  0999 V2000
   -1.6600  -13.4790  -14.4030 C   0  0  0  0  0
   -2.4490  -12.9380  -15.5640 C   0  0  0  0  0
   -1.7360  -13.1960  -16.8800 C   0  0  0  0  0
   -1.5610  -14.6470  -17.0970 N   0  0  0  0  0
   -0.6680  -15.1240  -16.0060 C   0  0  0  0  0
   -1.2980  -14.9380  -14.6370 C   0  0  0  0  0
   -1.9870  -15.3700  -18.1450 C   0  0  0  0  0
   -1.6160  -16.6270  -18.2960 N   0  0  0  0  0
   -2.7180  -14.8350  -19.0980 N   0  0  0  0  0
   -2.2649  -13.4052  -13.4992 H   0  0  0  0  0
   -0.7428  -12.8995  -14.2979 H   0  0  0  0  0
   -2.5637  -11.8617  -15.4355 H   0  0  0  0  0
   -3.4177  -13.4372  -15.5893 H   0  0  0  0  0
   -0.7553  -12.7212  -16.8508 H   0  0  0  0  0
   -2.3341  -12.7856  -17.6936 H   0  0  0  0  0
    0.2537  -14.5431  -16.0400 H   0  0  0  0  0
   -0.4834  -16.1878  -16.1557 H   0  0  0  0  0
   -2.2061  -15.5385  -14.5833 H   0  0  0  0  0
   -0.5828  -15.2493  -13.8756 H   0  0  0  0  0
   -1.8970  -17.1452  -19.1284 H   0  0  0  0  0
   -1.0482  -17.0807  -17.5803 H   0  0  0  0  0
   -2.9768  -15.3892  -19.9143 H   0  0  0  0  0
  1  2  1  0  0  0
  1  6  1  0  0  0
  2  3  1  0  0  0
  3  4  1  0  0  0
  4  5  1  0  0  0
  4  7  1  0  0  0
  5  6  1  0  0  0
  7  8  1  0  0  0
  7  9  2  0  0  0
  1 10  1  0  0  0
  1 11  1  0  0  0
  2 12  1  0  0  0
  2 13  1  0  0  0
  3 14  1  0  0  0
  3 15  1  0  0  0
  5 16  1  0  0  0
  5 17  1  0  0  0
  6 18  1  0  0  0
  6 19  1  0  0  0
  8 20  1  0  0  0
  8 21  1  0  0  0
  9 22  1  0  0  0
M  END
$$$$
