### 
### Created by X-TOOL on Wed Jan  1 15:39:34 2020
### 

@<TRIPOS>MOLECULE
5mnn_ligand
   23    23     1     0     0
SMALL
GAST_HUCK


@<TRIPOS>ATOM
      1 C1         -1.6600  -13.4790  -14.4030 C.3       1 MRZ        -0.0467
      2 C6         -2.4490  -12.9380  -15.5640 C.3       1 MRZ        -0.0195
      3 C5         -1.7360  -13.1960  -16.8800 C.3       1 MRZ         0.0648
      4 N4         -1.5610  -14.6470  -17.0970 N.pl3     1 MRZ        -0.2597
      5 C3         -0.6680  -15.1240  -16.0060 C.3       1 MRZ         0.0648
      6 C2         -1.2980  -14.9380  -14.6370 C.3       1 MRZ        -0.0195
      7 C7         -1.9870  -15.3700  -18.1450 C.cat     1 MRZ         0.2903
      8 N8         -1.6160  -16.6270  -18.2960 N.pl3     1 MRZ        -0.2848
      9 N9         -2.7180  -14.8350  -19.0980 N.pl3     1 MRZ        -0.2848
     10 H1         -2.2632  -13.3984  -13.4867 H         1 MRZ         0.0267
     11 H2         -0.7373  -12.8914  -14.2874 H         1 MRZ         0.0267
     12 H3         -2.5811  -11.8537  -15.4340 H         1 MRZ         0.0299
     13 H4         -3.4339  -13.4272  -15.5876 H         1 MRZ         0.0299
     14 H5         -0.7487  -12.7115  -16.8581 H         1 MRZ         0.0690
     15 H6         -2.3323  -12.7761  -17.7034 H         1 MRZ         0.0690
     16 H7          0.2740  -14.5572  -16.0440 H         1 MRZ         0.0690
     17 H8         -0.4592  -16.1931  -16.1591 H         1 MRZ         0.0690
     18 H9         -2.2095  -15.5505  -14.5732 H         1 MRZ         0.0299
     19 H10        -0.5844  -15.2609  -13.8647 H         1 MRZ         0.0299
     20 H11        -1.9509  -17.1692  -19.1052 H         1 MRZ         0.2615
     21 H12        -0.9914  -17.0662  -17.6047 H         1 MRZ         0.2615
     22 H13        -3.0293  -13.8563  -19.0203 H         1 MRZ         0.2615
     23 H14        -2.9793  -15.3946  -19.9223 H         1 MRZ         0.2615
@<TRIPOS>BOND
     1    1    2 1  
     2    1    6 1  
     3    2    3 1  
     4    3    4 1  
     5    4    5 1  
     6    4    7 ar 
     7    5    6 1  
     8    7    8 ar 
     9    7    9 ar 
    10    1   10 1  
    11    1   11 1  
    12    2   12 1  
    13    2   13 1  
    14    3   14 1  
    15    3   15 1  
    16    5   16 1  
    17    5   17 1  
    18    6   18 1  
    19    6   19 1  
    20    8   20 1  
    21    8   21 1  
    22    9   22 1  
    23    9   23 1  
@<TRIPOS>SUBSTRUCTURE
     1 MRZ         1

