6pvw_ligand
  -I-interpret- 

 54 57  0  0  0  0  0  0  0  0999 V2000
  -14.9320  -13.0270   13.9130 O   0  0  0  0  0
  -13.2100  -11.6540   20.4290 C   0  0  0  0  0
  -13.4730  -12.5670   21.4550 C   0  0  0  0  0
  -14.4430  -12.2140   22.4010 C   0  0  0  0  0
  -15.0690  -11.0390   22.2860 N   0  0  0  0  0
  -11.9410  -13.4430   20.2130 C   0  0  0  0  0
  -13.8810  -10.5060   20.3890 N   0  0  0  0  0
  -12.6790  -14.0710   14.0910 O   0  0  0  0  0
  -14.7860  -10.2170   21.2990 C   0  0  0  0  0
  -14.7230  -13.0860   23.4250 N   0  0  0  0  0
  -13.6340  -13.4870   11.8580 O   0  0  0  0  0
  -12.8470  -11.8220   13.5800 O   0  0  0  0  0
  -11.6350  -11.6600   18.4660 C   0  0  0  0  0
  -10.3650  -10.8340   18.7950 C   0  0  0  0  0
   -9.2370  -11.6810   18.1670 C   0  0  0  0  0
  -10.0110  -12.2680   16.9720 C   0  0  0  0  0
   -9.2520  -13.4110   16.3080 C   0  0  0  0  0
  -12.6740  -13.6440   21.2660 N   0  0  0  0  0
  -12.2360  -12.2320   19.6680 N   0  0  0  0  0
  -10.4780  -13.9980   12.7960 O   0  0  0  0  0
  -11.7160   -9.8040   14.2140 O   0  0  0  0  0
  -10.4510  -11.7930   11.8690 O   0  0  0  0  0
  -12.5600  -11.4410   15.8670 O   0  0  0  0  0
   -8.5130  -14.8700   14.1630 O   0  0  0  0  0
  -10.4360   -9.5500   18.1730 O   0  0  0  0  0
   -6.3280  -13.6980   13.9660 O   0  0  0  0  0
   -8.1360  -10.8870   17.7270 O   0  0  0  0  0
   -8.4970  -12.5660   13.0900 O   0  0  0  0  0
  -10.5990  -12.0630   14.3420 O   0  0  0  0  0
  -11.2140  -12.7400   17.6020 O   0  0  0  0  0
  -10.8950  -15.5320   14.7830 O   0  0  0  0  0
   -8.1000  -12.8510   15.6830 O   0  0  0  0  0
  -12.0500  -15.9510   12.6340 O   0  0  0  0  0
  -11.8520  -11.2640   14.5570 P   0  0  0  0  0
  -11.4320  -14.9080   13.5200 P   0  0  0  0  0
  -13.5550  -13.1380   13.3150 P   0  0  0  0  0
  -10.0000  -12.5800   13.0640 P   0  0  0  0  0
   -7.9100  -13.5260   14.2310 P   0  0  0  0  0
  -14.8584  -12.8035   14.8437 H   0  0  0  0  0
  -11.1996  -14.1408   19.8238 H   0  0  0  0  0
  -15.3174   -9.2676   21.2330 H   0  0  0  0  0
  -14.2271  -13.9751   23.4877 H   0  0  0  0  0
  -15.4268  -12.8443   24.1226 H   0  0  0  0  0
  -12.3795  -11.0146   17.9999 H   0  0  0  0  0
  -10.2252  -10.6496   19.8602 H   0  0  0  0  0
   -8.7770  -12.4024   18.8423 H   0  0  0  0  0
  -10.1798  -11.5497   16.1697 H   0  0  0  0  0
   -9.8814  -13.9107   15.5716 H   0  0  0  0  0
   -8.9609  -14.1569   17.0476 H   0  0  0  0  0
  -11.2609   -9.7150   13.3735 H   0  0  0  0  0
   -9.6447   -9.0492   18.3842 H   0  0  0  0  0
   -5.9030  -12.8380   14.0035 H   0  0  0  0  0
   -7.4640  -11.4569   17.3459 H   0  0  0  0  0
  -10.5049  -14.8501   15.3347 H   0  0  0  0  0
 36  1  1  0  0  0
  2  3  4  0  0  0
  2  7  4  0  0  0
 19  2  4  0  0  0
  3  4  4  0  0  0
 18  3  4  0  0  0
  4  5  4  0  0  0
  4 10  1  0  0  0
  9  5  4  0  0  0
  6 18  4  0  0  0
 19  6  4  0  0  0
  7  9  4  0  0  0
 35  8  1  0  0  0
  8 36  1  0  0  0
 36 11  2  0  0  0
 34 12  1  0  0  0
 12 36  1  0  0  0
 13 14  1  0  0  0
 13 19  1  0  0  0
 30 13  1  0  0  0
 15 14  1  0  0  0
 14 25  1  0  0  0
 16 15  1  0  0  0
 15 27  1  0  0  0
 17 16  1  0  0  0
 16 30  1  0  0  0
 32 17  1  0  0  0
 20 35  1  0  0  0
 37 20  1  0  0  0
 34 21  1  0  0  0
 37 22  2  0  0  0
 34 23  2  0  0  0
 38 24  2  0  0  0
 38 26  1  0  0  0
 28 37  1  0  0  0
 38 28  1  0  0  0
 29 34  1  0  0  0
 37 29  1  0  0  0
 35 31  1  0  0  0
 32 38  1  0  0  0
 35 33  2  0  0  0
  1 39  1  0  0  0
  6 40  1  0  0  0
  9 41  1  0  0  0
 10 42  1  0  0  0
 10 43  1  0  0  0
 13 44  1  0  0  0
 14 45  1  0  0  0
 15 46  1  0  0  0
 16 47  1  0  0  0
 17 48  1  0  0  0
 17 49  1  0  0  0
 21 50  1  0  0  0
 25 51  1  0  0  0
 26 52  1  0  0  0
 27 53  1  0  0  0
 31 54  1  0  0  0
M  END
$$$$
