### 
### Created by X-TOOL on Mon Aug  2 16:16:11 2021
### 

@<TRIPOS>MOLECULE
6pvw_ligand
   50    53     1     0     0
SMALL
GAST_HUCK


@<TRIPOS>ATOM
      1 O3        -14.9320  -13.0270   13.9130 O.co2     1 OZV        -0.6078
      2 C4        -13.2100  -11.6540   20.4290 C.ar      1 OZV         0.1613
      3 C5        -13.4730  -12.5670   21.4550 C.ar      1 OZV         0.1045
      4 C6        -14.4430  -12.2140   22.4010 C.ar      1 OZV         0.1298
      5 N1        -15.0690  -11.0390   22.2860 N.ar      1 OZV        -0.2698
      6 C8        -11.9410  -13.4430   20.2130 C.2       1 OZV         0.1123
      7 N3        -13.8810  -10.5060   20.3890 N.ar      1 OZV        -0.2714
      8 O         -12.6790  -14.0710   14.0910 O.3       1 OZV        -0.1197
      9 C2        -14.7860  -10.2170   21.2990 C.ar      1 OZV         0.0533
     10 N6        -14.7230  -13.0860   23.4250 N.pl3     1 OZV        -0.3152
     11 O1        -13.6340  -13.4870   11.8580 O.co2     1 OZV        -0.6078
     12 O2        -12.8470  -11.8220   13.5800 O.3       1 OZV        -0.1197
     13 C1'       -11.6350  -11.6600   18.4660 C.3       1 OZV         0.2010
     14 C2'       -10.3650  -10.8340   18.7950 C.3       1 OZV         0.1385
     15 C3'        -9.2370  -11.6810   18.1670 C.3       1 OZV         0.1149
     16 C4'       -10.0110  -12.2680   16.9720 C.3       1 OZV         0.1189
     17 C5'        -9.2520  -13.4110   16.3080 C.3       1 OZV         0.1129
     18 N7        -12.6740  -13.6440   21.2660 N.2       1 OZV        -0.2958
     19 N9        -12.2360  -12.2320   19.6680 N.pl3     1 OZV        -0.1919
     20 O01       -10.4780  -13.9980   12.7960 O.3       1 OZV        -0.0741
     21 O02       -11.7160   -9.8040   14.2140 O.co2     1 OZV        -0.6066
     22 O03       -10.4510  -11.7930   11.8690 O.2       1 OZV        -0.5263
     23 O04       -12.5600  -11.4410   15.8670 O.co2     1 OZV        -0.6066
     24 O1A        -8.5130  -14.8700   14.1630 O.co2     1 OZV        -0.6115
     25 O2'       -10.4360   -9.5500   18.1730 O.3       1 OZV        -0.3836
     26 O2A        -6.3280  -13.6980   13.9660 O.co2     1 OZV        -0.6115
     27 O3'        -8.1360  -10.8870   17.7270 O.3       1 OZV        -0.3864
     28 O3A        -8.4970  -12.5660   13.0900 O.3       1 OZV        -0.0797
     29 O4        -10.5990  -12.0630   14.3420 O.3       1 OZV        -0.0741
     30 O4'       -11.2140  -12.7400   17.6020 O.3       1 OZV        -0.3364
     31 O5        -10.8950  -15.5320   14.7830 O.co2     1 OZV        -0.6066
     32 O5'        -8.1000  -12.8510   15.6830 O.3       1 OZV        -0.2467
     33 O6        -12.0500  -15.9510   12.6340 O.co2     1 OZV        -0.6066
     34 P01       -11.8520  -11.2640   14.5570 P.3       1 OZV         0.3477
     35 P02       -11.4320  -14.9080   13.5200 P.3       1 OZV         0.3477
     36 P1        -13.5550  -13.1380   13.3150 P.3       1 OZV         0.3369
     37 P2        -10.0000  -12.5800   13.0640 P.3       1 OZV         0.5216
     38 PA         -7.9100  -13.5260   14.2310 P.3       1 OZV         0.3092
     39 H1        -11.2003  -14.1402   19.8241 H         1 OZV         0.1349
     40 H2        -15.3145   -9.2728   21.2334 H         1 OZV         0.0996
     41 H3        -15.4337  -12.8420   24.1294 H         1 OZV         0.1820
     42 H4        -14.2222  -13.9838   23.4883 H         1 OZV         0.1820
     43 H5        -12.3724  -11.0234   17.9551 H         1 OZV         0.0996
     44 H6        -10.2267  -10.7194   19.8802 H         1 OZV         0.0676
     45 H7         -8.8776  -12.4611   18.8542 H         1 OZV         0.0648
     46 H8        -10.2303  -11.4933   16.2225 H         1 OZV         0.0651
     47 H9         -9.8890  -13.8980   15.5550 H         1 OZV         0.0648
     48 H10        -8.9478  -14.1497   17.0641 H         1 OZV         0.0648
     49 H11        -9.6092   -9.0969   18.2893 H         1 OZV         0.2101
     50 H12        -7.5433  -11.4252   17.2156 H         1 OZV         0.2100
@<TRIPOS>BOND
     1   36    1 ar 
     2    2    3 ar 
     3    2    7 ar 
     4   19    2 1  
     5    3    4 ar 
     6   18    3 1  
     7    4    5 ar 
     8    4   10 1  
     9    9    5 ar 
    10    6   18 2  
    11   19    6 1  
    12    7    9 ar 
    13   35    8 1  
    14    8   36 1  
    15   36   11 ar 
    16   34   12 1  
    17   12   36 1  
    18   13   14 1  
    19   13   19 1  
    20   30   13 1  
    21   15   14 1  
    22   14   25 1  
    23   16   15 1  
    24   15   27 1  
    25   17   16 1  
    26   16   30 1  
    27   32   17 1  
    28   20   35 1  
    29   37   20 1  
    30   34   21 ar 
    31   37   22 2  
    32   34   23 ar 
    33   38   24 ar 
    34   38   26 ar 
    35   28   37 1  
    36   38   28 1  
    37   29   34 1  
    38   37   29 1  
    39   35   31 ar 
    40   32   38 1  
    41   35   33 ar 
    42    6   39 1  
    43    9   40 1  
    44   10   41 1  
    45   10   42 1  
    46   13   43 1  
    47   14   44 1  
    48   15   45 1  
    49   16   46 1  
    50   17   47 1  
    51   17   48 1  
    52   25   49 1  
    53   27   50 1  
@<TRIPOS>SUBSTRUCTURE
     1 OZV         1

