### 
### Created by X-TOOL on Mon Sep 10 21:13:32 2018
### 

@<TRIPOS>MOLECULE
5mg2_ligand
   55    59     1     0     0
SMALL
GAST_HUCK


@<TRIPOS>ATOM
      1 C1         23.0140   68.5980   17.4010 C.ar      1 7M8        -0.0536
      2 C2         22.3100   69.6760   16.8880 C.ar      1 7M8        -0.0403
      3 C3         21.0440   69.9580   17.3450 C.ar      1 7M8         0.0649
      4 C4         20.4530   69.1510   18.3470 C.ar      1 7M8         0.0123
      5 C8         20.3410   65.0820   21.2790 C.3       1 7M8        -0.0181
      6 C9         20.9670   63.7310   21.4940 C.3       1 7M8         0.0463
      7 C10        19.1700   69.4520   18.8600 C.ar      1 7M8         0.0586
      8 C11        18.5940   68.6300   19.8010 C.ar      1 7M8        -0.0477
      9 C12        19.2640   67.5120   20.2690 C.ar      1 7M8        -0.0513
     10 C13        18.4290   70.6300   18.3630 C.2       1 7M8         0.2457
     11 C14        18.2170   72.3390   16.6650 C.ar      1 7M8         0.0704
     12 C15        18.2000   73.6450   17.1610 C.ar      1 7M8        -0.0445
     13 C16        17.4390   74.5970   16.4780 C.ar      1 7M8        -0.0604
     14 C17        16.7110   74.2190   15.3540 C.ar      1 7M8         0.0754
     15 C18        16.7310   72.9100   14.8990 C.ar      1 7M8         0.0770
     16 C19        17.4860   71.9500   15.5430 C.ar      1 7M8        -0.0321
     17 C20        15.3530   74.0890   13.5240 C.2       1 7M8         0.3065
     18 C21        15.5420   76.3560   14.6010 C.3       1 7M8         0.0415
     19 C24        20.2970   71.1030   16.7800 C.2       1 7M8         0.2511
     20 O3         20.7270   71.7960   15.8710 O.2       1 7M8        -0.3700
     21 N          19.0270   71.3500   17.3190 N.am      1 7M8        -0.1495
     22 O2         17.3810   71.0180   18.8600 O.2       1 7M8        -0.3736
     23 C6         20.5270   67.1930   19.8270 C.ar      1 7M8        -0.0239
     24 C7         21.2290   65.9730   20.3850 C.3       1 7M8        -0.0109
     25 O          22.2670   63.9720   21.9600 O.3       1 7M8        -0.3948
     26 C5         21.1540   68.0260   18.8460 C.ar      1 7M8        -0.0005
     27 C          22.4590   67.7820   18.3490 C.ar      1 7M8        -0.0469
     28 N1         15.9010   72.8440   13.7750 N.am      1 7M8        -0.2158
     29 C22        15.6640   71.6550   12.9630 C.3       1 7M8         0.0425
     30 O1         14.5630   74.3830   12.6450 O.2       1 7M8        -0.3971
     31 N2         15.8630   74.9350   14.5030 N.am      1 7M8        -0.2176
     32 C23        18.9300   74.0270   18.4240 C.3       1 7M8        -0.0434
     33 H1         24.0187   68.3984   17.0462 H         1 7M8         0.0619
     34 H2         22.7592   70.2994   16.1234 H         1 7M8         0.0698
     35 H3         20.2054   65.5737   22.2536 H         1 7M8         0.0313
     36 H4         19.3620   64.9508   20.7950 H         1 7M8         0.0313
     37 H5         20.9988   63.1706   20.5480 H         1 7M8         0.0559
     38 H6         20.3945   63.1597   22.2396 H         1 7M8         0.0559
     39 H7         17.6049   68.8600   20.1802 H         1 7M8         0.0679
     40 H8         18.7820   66.8735   21.0005 H         1 7M8         0.0551
     41 H9         17.4158   75.6247   16.8219 H         1 7M8         0.0375
     42 H10        17.5098   70.9262   15.1876 H         1 7M8         0.0350
     43 H11        16.0735   76.7936   15.4589 H         1 7M8         0.0544
     44 H12        14.4577   76.4782   14.7403 H         1 7M8         0.0544
     45 H13        15.8530   76.8667   13.6777 H         1 7M8         0.0544
     46 H14        21.5871   65.3656   19.5407 H         1 7M8         0.0457
     47 H15        22.0878   66.3130   20.9824 H         1 7M8         0.0457
     48 H16        22.7065   63.1436   22.1117 H         1 7M8         0.2094
     49 H17        23.0250   66.9374   18.7251 H         1 7M8         0.0690
     50 H18        16.2200   70.8053   13.3860 H         1 7M8         0.0546
     51 H19        16.0047   71.8401   11.9336 H         1 7M8         0.0546
     52 H20        14.5887   71.4232   12.9573 H         1 7M8         0.0546
     53 H21        19.4697   73.1517   18.8145 H         1 7M8         0.0339
     54 H22        18.2058   74.3762   19.1748 H         1 7M8         0.0339
     55 H23        19.6470   74.8317   18.2040 H         1 7M8         0.0339
@<TRIPOS>BOND
     1    2    1 ar 
     2    1   27 ar 
     3    3    2 ar 
     4    4    3 ar 
     5    3   19 1  
     6    7    4 ar 
     7    4   26 ar 
     8    5    6 1  
     9   24    5 1  
    10    6   25 1  
    11    8    7 ar 
    12    7   10 1  
    13    9    8 ar 
    14   23    9 ar 
    15   10   21 am 
    16   10   22 2  
    17   11   12 ar 
    18   11   16 ar 
    19   21   11 1  
    20   12   13 ar 
    21   12   32 1  
    22   13   14 ar 
    23   15   14 ar 
    24   14   31 1  
    25   16   15 ar 
    26   15   28 1  
    27   28   17 am 
    28   17   30 2  
    29   17   31 am 
    30   31   18 1  
    31   19   20 2  
    32   21   19 am 
    33   23   24 1  
    34   23   26 ar 
    35   26   27 ar 
    36   28   29 1  
    37    1   33 1  
    38    2   34 1  
    39    5   35 1  
    40    5   36 1  
    41    6   37 1  
    42    6   38 1  
    43    8   39 1  
    44    9   40 1  
    45   13   41 1  
    46   16   42 1  
    47   18   43 1  
    48   18   44 1  
    49   18   45 1  
    50   24   46 1  
    51   24   47 1  
    52   25   48 1  
    53   27   49 1  
    54   29   50 1  
    55   29   51 1  
    56   29   52 1  
    57   32   53 1  
    58   32   54 1  
    59   32   55 1  
@<TRIPOS>SUBSTRUCTURE
     1 7M8         1

