5mg2_ligand
  -I-interpret- 

 55 59  0  0  0  0  0  0  0  0999 V2000
   23.0140   68.5980   17.4010 C   0  0  0  0  0
   22.3100   69.6760   16.8880 C   0  0  0  0  0
   21.0440   69.9580   17.3450 C   0  0  0  0  0
   20.4530   69.1510   18.3470 C   0  0  0  0  0
   20.3410   65.0820   21.2790 C   0  0  0  0  0
   20.9670   63.7310   21.4940 C   0  0  0  0  0
   19.1700   69.4520   18.8600 C   0  0  0  0  0
   18.5940   68.6300   19.8010 C   0  0  0  0  0
   19.2640   67.5120   20.2690 C   0  0  0  0  0
   18.4290   70.6300   18.3630 C   0  0  0  0  0
   18.2170   72.3390   16.6650 C   0  0  0  0  0
   18.2000   73.6450   17.1610 C   0  0  0  0  0
   17.4390   74.5970   16.4780 C   0  0  0  0  0
   16.7110   74.2190   15.3540 C   0  0  0  0  0
   16.7310   72.9100   14.8990 C   0  0  0  0  0
   17.4860   71.9500   15.5430 C   0  0  0  0  0
   15.3530   74.0890   13.5240 C   0  0  0  0  0
   15.5420   76.3560   14.6010 C   0  0  0  0  0
   20.2970   71.1030   16.7800 C   0  0  0  0  0
   20.7270   71.7960   15.8710 O   0  0  0  0  0
   19.0270   71.3500   17.3190 N   0  0  0  0  0
   17.3810   71.0180   18.8600 O   0  0  0  0  0
   20.5270   67.1930   19.8270 C   0  0  0  0  0
   21.2290   65.9730   20.3850 C   0  0  0  0  0
   22.2670   63.9720   21.9600 O   0  0  0  0  0
   21.1540   68.0260   18.8460 C   0  0  0  0  0
   22.4590   67.7820   18.3490 C   0  0  0  0  0
   15.9010   72.8440   13.7750 N   0  0  0  0  0
   15.6640   71.6550   12.9630 C   0  0  0  0  0
   14.5630   74.3830   12.6450 O   0  0  0  0  0
   15.8630   74.9350   14.5030 N   0  0  0  0  0
   18.9300   74.0270   18.4240 C   0  0  0  0  0
   24.0242   68.3973   17.0442 H   0  0  0  0  0
   22.7617   70.3029   16.1191 H   0  0  0  0  0
   20.2229   65.5687   22.2472 H   0  0  0  0  0
   19.3783   64.9449   20.7865 H   0  0  0  0  0
   20.9816   63.1531   20.5699 H   0  0  0  0  0
   20.3951   63.1426   22.2115 H   0  0  0  0  0
   17.5994   68.8613   20.1823 H   0  0  0  0  0
   18.7794   66.8700   21.0046 H   0  0  0  0  0
   17.4157   75.6304   16.8238 H   0  0  0  0  0
   17.5099   70.9205   15.1857 H   0  0  0  0  0
   15.0746   76.5559   15.5652 H   0  0  0  0  0
   16.4573   76.9410   14.5113 H   0  0  0  0  0
   14.8553   76.6282   13.7995 H   0  0  0  0  0
   21.5400   65.3655   19.5351 H   0  0  0  0  0
   22.0506   66.3316   21.0051 H   0  0  0  0  0
   22.7111   63.1348   22.1133 H   0  0  0  0  0
   23.0281   66.9328   18.7271 H   0  0  0  0  0
   16.6087   71.3087   12.5438 H   0  0  0  0  0
   15.2324   70.8714   13.5857 H   0  0  0  0  0
   14.9745   71.8999   12.1551 H   0  0  0  0  0
   18.5408   73.4429   19.2579 H   0  0  0  0  0
   19.9941   73.8247   18.3024 H   0  0  0  0  0
   18.7809   75.0886   18.6214 H   0  0  0  0  0
  2  1  4  0  0  0
  1 27  4  0  0  0
  3  2  4  0  0  0
  4  3  4  0  0  0
  3 19  1  0  0  0
  7  4  4  0  0  0
  4 26  4  0  0  0
  5  6  1  0  0  0
 24  5  1  0  0  0
  6 25  1  0  0  0
  8  7  4  0  0  0
  7 10  1  0  0  0
  9  8  4  0  0  0
 23  9  4  0  0  0
 10 21  1  0  0  0
 10 22  2  0  0  0
 11 12  4  0  0  0
 11 16  4  0  0  0
 21 11  1  0  0  0
 12 13  4  0  0  0
 12 32  1  0  0  0
 13 14  4  0  0  0
 15 14  4  0  0  0
 14 31  1  0  0  0
 16 15  4  0  0  0
 15 28  1  0  0  0
 28 17  1  0  0  0
 17 30  2  0  0  0
 17 31  1  0  0  0
 31 18  1  0  0  0
 19 20  2  0  0  0
 21 19  1  0  0  0
 23 24  1  0  0  0
 23 26  4  0  0  0
 26 27  4  0  0  0
 28 29  1  0  0  0
  1 33  1  0  0  0
  2 34  1  0  0  0
  5 35  1  0  0  0
  5 36  1  0  0  0
  6 37  1  0  0  0
  6 38  1  0  0  0
  8 39  1  0  0  0
  9 40  1  0  0  0
 13 41  1  0  0  0
 16 42  1  0  0  0
 18 43  1  0  0  0
 18 44  1  0  0  0
 18 45  1  0  0  0
 24 46  1  0  0  0
 24 47  1  0  0  0
 25 48  1  0  0  0
 27 49  1  0  0  0
 29 50  1  0  0  0
 29 51  1  0  0  0
 29 52  1  0  0  0
 32 53  1  0  0  0
 32 54  1  0  0  0
 32 55  1  0  0  0
M  END
$$$$
