2zx8_ligand
  -I-interpret- 

 44 46  0  0  0  0  0  0  0  0999 V2000
   -1.0110   27.0880   30.9920 C   0  0  0  0  0
   -0.2210   27.3300   32.0420 C   0  0  0  0  0
    0.1010   28.4980   32.7090 C   0  0  0  0  0
    1.0770   28.4830   33.7060 C   0  0  0  0  0
    1.7270   27.3020   34.0400 C   0  0  0  0  0
    1.4020   26.1220   33.3780 C   0  0  0  0  0
    0.4330   26.1440   32.3830 C   0  0  0  0  0
    0.0060   25.1920   31.5070 O   0  0  0  0  0
   -0.8630   25.8110   30.6530 C   0  0  0  0  0
   -1.1930   25.1980   29.2910 C   0  0  0  0  0
   -1.2210   23.9800   29.1710 O   0  0  0  0  0
   -1.3620   26.0660   28.2850 N   0  0  0  0  0
   -1.6510   25.6320   26.9130 C   0  0  0  0  0
   -1.4120   26.7710   25.9140 C   0  0  0  0  0
    0.0100   27.1510   25.8760 N   0  3  0  0  0
    0.2220   28.2920   24.9680 C   0  0  0  0  0
    1.7020   28.6690   24.9890 C   0  0  0  0  0
   -0.2500   28.0050   23.5350 C   0  0  0  0  0
    0.5010   26.9290   22.9610 O   0  0  0  0  0
   -1.7200   27.5870   23.5810 C   0  0  0  0  0
   -2.2080   27.2450   22.2820 O   0  0  0  0  0
   -1.8300   26.3670   24.4970 C   0  0  0  0  0
   -3.1770   25.8940   24.4780 O   0  0  0  0  0
   -1.6622   27.8104   30.4999 H   0  0  0  0  0
   -0.4069   29.4287   32.4562 H   0  0  0  0  0
    1.3314   29.4059   34.2271 H   0  0  0  0  0
    2.4897   27.2994   34.8187 H   0  0  0  0  0
    1.9030   25.1894   33.6377 H   0  0  0  0  0
   -1.2872   27.0645   28.4794 H   0  0  0  0  0
   -2.6966   25.3297   26.8549 H   0  0  0  0  0
   -0.9898   24.8025   26.6622 H   0  0  0  0  0
   -2.0164   27.6131   26.2512 H   0  0  0  0  0
    0.5540   26.3567   25.5390 H   0  0  0  0  0
    0.3043   27.4187   26.8152 H   0  0  0  0  0
   -0.3829   29.1267   25.3222 H   0  0  0  0  0
    1.9911   28.9445   26.0032 H   0  0  0  0  0
    2.2972   27.8177   24.6587 H   0  0  0  0  0
    1.8702   29.5129   24.3200 H   0  0  0  0  0
   -0.1110   28.9026   22.9325 H   0  0  0  0  0
    0.1915   26.7654   22.0671 H   0  0  0  0  0
   -2.3177   28.4196   23.9519 H   0  0  0  0  0
   -3.1308   26.9880   22.3455 H   0  0  0  0  0
   -1.1740   25.5669   24.1540 H   0  0  0  0  0
   -3.4157   25.6474   23.5815 H   0  0  0  0  0
  1  2  4  0  0  0
  1  9  4  0  0  0
  2  3  4  0  0  0
  2  7  4  0  0  0
  3  4  4  0  0  0
  4  5  4  0  0  0
  5  6  4  0  0  0
  6  7  4  0  0  0
  7  8  4  0  0  0
  8  9  4  0  0  0
  9 10  1  0  0  0
 10 11  2  0  0  0
 10 12  1  0  0  0
 12 13  1  0  0  0
 13 14  1  0  0  0
 14 15  1  0  0  0
 14 22  1  0  0  0
 15 16  1  0  0  0
 16 17  1  0  0  0
 16 18  1  0  0  0
 18 19  1  0  0  0
 18 20  1  0  0  0
 20 21  1  0  0  0
 20 22  1  0  0  0
 22 23  1  0  0  0
  1 24  1  0  0  0
  3 25  1  0  0  0
  4 26  1  0  0  0
  5 27  1  0  0  0
  6 28  1  0  0  0
 12 29  1  0  0  0
 13 30  1  0  0  0
 13 31  1  0  0  0
 14 32  1  0  0  0
 15 33  1  0  0  0
 15 34  1  0  0  0
 16 35  1  0  0  0
 17 36  1  0  0  0
 17 37  1  0  0  0
 17 38  1  0  0  0
 18 39  1  0  0  0
 19 40  1  0  0  0
 20 41  1  0  0  0
 21 42  1  0  0  0
 22 43  1  0  0  0
 23 44  1  0  0  0
M  END
$$$$
