### 
### Created by X-TOOL on Mon Sep 10 21:12:59 2018
### 

@<TRIPOS>MOLECULE
2zx8_ligand
   44    46     1     0     0
SMALL
GAST_HUCK


@<TRIPOS>ATOM
      1 CAJ        -1.0110   27.0880   30.9920 C.2       1 ZX8        -0.0221
      2 CAQ        -0.2210   27.3300   32.0420 C.ar      1 ZX8        -0.0008
      3 CAH         0.1010   28.4980   32.7090 C.ar      1 ZX8        -0.0670
      4 CAF         1.0770   28.4830   33.7060 C.ar      1 ZX8        -0.0739
      5 CAG         1.7270   27.3020   34.0400 C.ar      1 ZX8        -0.0709
      6 CAI         1.4020   26.1220   33.3780 C.ar      1 ZX8        -0.0282
      7 CAR         0.4330   26.1440   32.3830 C.ar      1 ZX8         0.1284
      8 OAN         0.0060   25.1920   31.5070 O.3       1 ZX8        -0.2416
      9 CAP        -0.8630   25.8110   30.6530 C.2       1 ZX8         0.1912
     10 CAO        -1.1930   25.1980   29.2910 C.2       1 ZX8         0.2382
     11 OAB        -1.2210   23.9800   29.1710 O.2       1 ZX8        -0.3827
     12 NAL        -1.3620   26.0660   28.2850 N.am      1 ZX8        -0.2786
     13 CAK        -1.6510   25.6320   26.9130 C.3       1 ZX8         0.0755
     14 CAT        -1.4120   26.7710   25.9140 C.3       1 ZX8         0.0272
     15 NAM         0.0100   27.1510   25.8760 N.4       1 ZX8         0.2364
     16 CAS         0.2220   28.2920   24.9680 C.3       1 ZX8         0.0040
     17 CAA         1.7020   28.6690   24.9890 C.3       1 ZX8        -0.0191
     18 CAU        -0.2500   28.0050   23.5350 C.3       1 ZX8         0.1256
     19 OAC         0.5010   26.9290   22.9610 O.3       1 ZX8        -0.3835
     20 CAW        -1.7200   27.5870   23.5810 C.3       1 ZX8         0.1174
     21 OAE        -2.2080   27.2450   22.2820 O.3       1 ZX8        -0.3862
     22 CAV        -1.8300   26.3670   24.4970 C.3       1 ZX8         0.1277
     23 OAD        -3.1770   25.8940   24.4780 O.3       1 ZX8        -0.3835
     24 H1         -1.6616   27.8097   30.5004 H         1 ZX8         0.0460
     25 H2         -0.4041   29.4236   32.4576 H         1 ZX8         0.0568
     26 H3          1.3300   29.4009   34.2242 H         1 ZX8         0.0535
     27 H4          2.4855   27.2995   34.8144 H         1 ZX8         0.0563
     28 H5          1.9002   25.1946   33.6363 H         1 ZX8         0.0568
     29 H6         -1.2886   27.0449   28.4755 H         1 ZX8         0.1844
     30 H7         -2.7020   25.3134   26.8504 H         1 ZX8         0.0576
     31 H8         -0.9956   24.7863   26.6577 H         1 ZX8         0.0576
     32 H9         -2.0081   27.6401   26.2293 H         1 ZX8         0.0897
     33 H10         0.5535   26.3660   25.5528 H         1 ZX8         0.2021
     34 H11         0.3087   27.4072   26.8040 H         1 ZX8         0.2021
     35 H12        -0.3605   29.1444   25.3477 H         1 ZX8         0.0874
     36 H13         1.8730   29.5207   24.3142 H         1 ZX8         0.0285
     37 H14         2.3038   27.8106   24.6558 H         1 ZX8         0.0285
     38 H15         1.9950   28.9473   26.0121 H         1 ZX8         0.0285
     39 H16        -0.1326   28.9091   22.9195 H         1 ZX8         0.0677
     40 H17         0.1947   26.7671   22.0764 H         1 ZX8         0.2102
     41 H18        -2.3223   28.4136   23.9858 H         1 ZX8         0.0649
     42 H19        -2.1263   27.9963   21.7063 H         1 ZX8         0.2100
     43 H20        -1.1618   25.5717   24.1351 H         1 ZX8         0.0678
     44 H21        -3.4140   25.6521   23.5904 H         1 ZX8         0.2102
@<TRIPOS>BOND
     1    1    2 1  
     2    1    9 2  
     3    2    3 ar 
     4    2    7 ar 
     5    3    4 ar 
     6    4    5 ar 
     7    5    6 ar 
     8    6    7 ar 
     9    7    8 1  
    10    8    9 1  
    11    9   10 1  
    12   10   11 2  
    13   10   12 am 
    14   12   13 1  
    15   13   14 1  
    16   14   15 1  
    17   14   22 1  
    18   15   16 1  
    19   16   17 1  
    20   16   18 1  
    21   18   19 1  
    22   18   20 1  
    23   20   21 1  
    24   20   22 1  
    25   22   23 1  
    26    1   24 1  
    27    3   25 1  
    28    4   26 1  
    29    5   27 1  
    30    6   28 1  
    31   12   29 1  
    32   13   30 1  
    33   13   31 1  
    34   14   32 1  
    35   15   33 1  
    36   15   34 1  
    37   16   35 1  
    38   17   36 1  
    39   17   37 1  
    40   17   38 1  
    41   18   39 1  
    42   19   40 1  
    43   20   41 1  
    44   21   42 1  
    45   22   43 1  
    46   23   44 1  
@<TRIPOS>SUBSTRUCTURE
     1 ZX8         1

