### 
### Created by X-TOOL on Mon Sep 10 21:12:47 2018
### 

@<TRIPOS>MOLECULE
1xka_ligand
   53    55     1     0     0
SMALL
GAST_HUCK


@<TRIPOS>ATOM
      1 C1C         0.5200   16.4390   19.1710 C.2       1 4PP         0.0493
      2 O2          0.0480   15.3010   19.3010 O.co2     1 4PP        -0.5661
      3 O3          1.6960   16.7720   19.7870 O.co2     1 4PP        -0.5661
      4 N1P        -1.6370   26.0050   17.8390 N.ar      1 4PP        -0.3162
      5 C2P        -2.5080   25.3040   16.9820 C.ar      1 4PP        -0.0037
      6 C3P        -2.5830   23.8980   17.0620 C.ar      1 4PP        -0.0169
      7 C4P        -1.7900   23.1960   17.9930 C.ar      1 4PP         0.0585
      8 C5P        -0.9130   23.9090   18.8580 C.ar      1 4PP        -0.0169
      9 C6P        -0.8420   25.3070   18.7760 C.ar      1 4PP        -0.0037
     10 N1         -1.9020   21.7140   18.0390 N.pl3     1 4PP        -0.3145
     11 C1         -0.2300   17.4660   18.2990 C.3       1 4PP         0.0449
     12 C2          0.0960   18.8970   18.7340 C.3       1 4PP        -0.0272
     13 C3         -1.2270   19.5940   19.0360 C.3       1 4PP        -0.0295
     14 C4         -1.0180   21.1040   19.0560 C.3       1 4PP         0.0266
     15 N1A         4.9330   20.3120   10.3410 N.pl3     1 4PP        -0.2721
     16 N2A         3.1740   18.8870   10.0250 N.pl3     1 4PP        -0.2721
     17 C1A         4.0810   19.4230   10.8170 C.cat     1 4PP         0.2356
     18 C1D         0.7180   16.7840   14.0710 C.ar      1 4PP        -0.0607
     19 C2D        -0.4850   16.2740   14.6320 C.ar      1 4PP        -0.0675
     20 C3D        -0.7800   16.5030   16.0010 C.ar      1 4PP        -0.0582
     21 C4D         0.1240   17.2410   16.8200 C.ar      1 4PP        -0.0267
     22 C5D         1.3390   17.7560   16.2610 C.ar      1 4PP        -0.0510
     23 C6D         1.6390   17.5290   14.8830 C.ar      1 4PP        -0.0245
     24 C1B         5.3300   18.7330   14.4360 C.ar      1 4PP        -0.0612
     25 C2B         4.1470   18.2120   15.0370 C.ar      1 4PP        -0.0541
     26 C3B         2.9490   18.0890   14.2630 C.ar      1 4PP        -0.0195
     27 C4B         2.9520   18.4890   12.9010 C.ar      1 4PP        -0.0489
     28 C5B         4.1260   19.0050   12.2990 C.ar      1 4PP         0.0266
     29 C6B         5.3190   19.1300   13.0650 C.ar      1 4PP        -0.0565
     30 H1         -3.1172   25.8423   16.2650 H         1 4PP         0.0780
     31 H2         -3.2529   23.3548   16.4053 H         1 4PP         0.0610
     32 H3         -0.3029   23.3739   19.5767 H         1 4PP         0.0610
     33 H4         -0.1755   25.8538   19.4331 H         1 4PP         0.0780
     34 H5         -2.5282   21.1704   17.4280 H         1 4PP         0.1798
     35 H6         -1.3111   17.3074   18.4259 H         1 4PP         0.0623
     36 H7          0.6232   19.4249   17.9257 H         1 4PP         0.0308
     37 H8          0.7272   18.8817   19.6348 H         1 4PP         0.0308
     38 H9         -1.5993   19.2632   20.0168 H         1 4PP         0.0287
     39 H10        -1.9619   19.3367   18.2590 H         1 4PP         0.0287
     40 H11         0.0315   21.3364   18.8226 H         1 4PP         0.0517
     41 H12        -1.2688   21.5001   20.0511 H         1 4PP         0.0517
     42 H13         4.8931   20.5835    9.3482 H         1 4PP         0.3181
     43 H14         5.6377   20.7341   10.9624 H         1 4PP         0.3181
     44 H15         2.5099   18.1935   10.3978 H         1 4PP         0.3181
     45 H16         3.1293   19.1616    9.0333 H         1 4PP         0.3181
     46 H17         0.9412   16.6095   13.0247 H         1 4PP         0.0568
     47 H18        -1.1758   15.7111   14.0147 H         1 4PP         0.0601
     48 H19        -1.6981   16.1145   16.4266 H         1 4PP         0.0561
     49 H20         2.0284   18.3162   16.8822 H         1 4PP         0.0563
     50 H21         6.2381   18.8277   15.0203 H         1 4PP         0.0618
     51 H22         4.1545   17.9096   16.0779 H         1 4PP         0.0624
     52 H23         2.0449   18.3985   12.3144 H         1 4PP         0.0624
     53 H24         6.2184   19.5263   12.6077 H         1 4PP         0.0617
@<TRIPOS>BOND
     1   11    1 1  
     2    1    3 ar 
     3    1    2 ar 
     4   11   21 1  
     5   11   12 1  
     6   12   13 1  
     7   13   14 1  
     8   14   10 1  
     9   10    7 1  
    10    7    8 ar 
    11    7    6 ar 
    12    6    5 ar 
    13    5    4 ar 
    14    4    9 ar 
    15    9    8 ar 
    16   21   22 ar 
    17   21   20 ar 
    18   20   19 ar 
    19   19   18 ar 
    20   18   23 ar 
    21   23   26 1  
    22   23   22 ar 
    23   26   27 ar 
    24   26   25 ar 
    25   25   24 ar 
    26   24   29 ar 
    27   29   28 ar 
    28   28   17 1  
    29   28   27 ar 
    30   17   16 ar 
    31   17   15 ar 
    32    5   30 1  
    33    6   31 1  
    34    8   32 1  
    35    9   33 1  
    36   10   34 1  
    37   11   35 1  
    38   12   36 1  
    39   12   37 1  
    40   13   38 1  
    41   13   39 1  
    42   14   40 1  
    43   14   41 1  
    44   15   42 1  
    45   15   43 1  
    46   16   44 1  
    47   16   45 1  
    48   18   46 1  
    49   19   47 1  
    50   20   48 1  
    51   22   49 1  
    52   24   50 1  
    53   25   51 1  
    54   27   52 1  
    55   29   53 1  
@<TRIPOS>SUBSTRUCTURE
     1 4PP         1

