1xka_ligand
  -I-interpret- 

 53 55  0  0  0  0  0  0  0  0999 V2000
    0.5200   16.4390   19.1710 C   0  0  0  0  0
    0.0480   15.3010   19.3010 O   0  0  0  0  0
    1.6960   16.7720   19.7870 O   0  0  0  0  0
   -1.6370   26.0050   17.8390 N   0  0  0  0  0
   -2.5080   25.3040   16.9820 C   0  0  0  0  0
   -2.5830   23.8980   17.0620 C   0  0  0  0  0
   -1.7900   23.1960   17.9930 C   0  0  0  0  0
   -0.9130   23.9090   18.8580 C   0  0  0  0  0
   -0.8420   25.3070   18.7760 C   0  0  0  0  0
   -1.9020   21.7140   18.0390 N   0  0  0  0  0
   -0.2300   17.4660   18.2990 C   0  0  0  0  0
    0.0960   18.8970   18.7340 C   0  0  0  0  0
   -1.2270   19.5940   19.0360 C   0  0  0  0  0
   -1.0180   21.1040   19.0560 C   0  0  0  0  0
    4.9330   20.3120   10.3410 N   0  0  0  0  0
    3.1740   18.8870   10.0250 N   0  0  0  0  0
    4.0810   19.4230   10.8170 C   0  0  0  0  0
    0.7180   16.7840   14.0710 C   0  0  0  0  0
   -0.4850   16.2740   14.6320 C   0  0  0  0  0
   -0.7800   16.5030   16.0010 C   0  0  0  0  0
    0.1240   17.2410   16.8200 C   0  0  0  0  0
    1.3390   17.7560   16.2610 C   0  0  0  0  0
    1.6390   17.5290   14.8830 C   0  0  0  0  0
    5.3300   18.7330   14.4360 C   0  0  0  0  0
    4.1470   18.2120   15.0370 C   0  0  0  0  0
    2.9490   18.0890   14.2630 C   0  0  0  0  0
    2.9520   18.4890   12.9010 C   0  0  0  0  0
    4.1260   19.0050   12.2990 C   0  0  0  0  0
    5.3190   19.1300   13.0650 C   0  0  0  0  0
    1.9158   17.6840   19.5830 H   0  0  0  0  0
   -3.1206   25.8453   16.2610 H   0  0  0  0  0
   -3.2566   23.3518   16.4016 H   0  0  0  0  0
   -0.2995   23.3709   19.5807 H   0  0  0  0  0
   -0.1718   25.8569   19.4368 H   0  0  0  0  0
   -2.5221   21.1756   17.4340 H   0  0  0  0  0
   -1.3030   17.3247   18.4287 H   0  0  0  0  0
    0.6339   19.4231   17.9453 H   0  0  0  0  0
    0.7355   18.8919   19.6167 H   0  0  0  0  0
   -1.5945   19.2668   20.0086 H   0  0  0  0  0
   -1.9542   19.3396   18.2649 H   0  0  0  0  0
    0.0228   21.3384   18.8329 H   0  0  0  0  0
   -1.2580   21.4997   20.0429 H   0  0  0  0  0
    4.8899   20.5849    9.3591 H   0  0  0  0  0
    5.6344   20.7260   10.9551 H   0  0  0  0  0
    2.5129   18.2043   10.3954 H   0  0  0  0  0
    0.9424   16.6085   13.0189 H   0  0  0  0  0
   -1.1796   15.7080   14.0113 H   0  0  0  0  0
   -1.7032   16.1124   16.4290 H   0  0  0  0  0
    2.0322   18.3193   16.8856 H   0  0  0  0  0
    6.2431   18.8282   15.0235 H   0  0  0  0  0
    4.1546   17.9079   16.0837 H   0  0  0  0  0
    2.0399   18.3980   12.3112 H   0  0  0  0  0
    6.2233   19.5285   12.6052 H   0  0  0  0  0
 11  1  1  0  0  0
  1  3  1  0  0  0
  1  2  2  0  0  0
 11 21  1  0  0  0
 11 12  1  0  0  0
 12 13  1  0  0  0
 13 14  1  0  0  0
 14 10  1  0  0  0
 10  7  1  0  0  0
  7  8  4  0  0  0
  7  6  4  0  0  0
  6  5  4  0  0  0
  5  4  4  0  0  0
  4  9  4  0  0  0
  9  8  4  0  0  0
 21 22  4  0  0  0
 21 20  4  0  0  0
 20 19  4  0  0  0
 19 18  4  0  0  0
 18 23  4  0  0  0
 23 26  1  0  0  0
 23 22  4  0  0  0
 26 27  4  0  0  0
 26 25  4  0  0  0
 25 24  4  0  0  0
 24 29  4  0  0  0
 29 28  4  0  0  0
 28 17  1  0  0  0
 28 27  4  0  0  0
 17 16  2  0  0  0
 17 15  1  0  0  0
  3 30  1  0  0  0
  5 31  1  0  0  0
  6 32  1  0  0  0
  8 33  1  0  0  0
  9 34  1  0  0  0
 10 35  1  0  0  0
 11 36  1  0  0  0
 12 37  1  0  0  0
 12 38  1  0  0  0
 13 39  1  0  0  0
 13 40  1  0  0  0
 14 41  1  0  0  0
 14 42  1  0  0  0
 15 43  1  0  0  0
 15 44  1  0  0  0
 16 45  1  0  0  0
 18 46  1  0  0  0
 19 47  1  0  0  0
 20 48  1  0  0  0
 22 49  1  0  0  0
 24 50  1  0  0  0
 25 51  1  0  0  0
 27 52  1  0  0  0
 29 53  1  0  0  0
M  END
$$$$
