### 
### Created by X-TOOL on Mon Sep 10 21:13:31 2018
### 

@<TRIPOS>MOLECULE
5h5f_ligand
   50    52     1     0     0
SMALL
GAST_HUCK


@<TRIPOS>ATOM
      1 N         -20.3380   29.1720   28.7760 N.4       1 SAM         0.2328
      2 CA        -21.1800   28.1720   28.1250 C.3       1 SAM         0.0327
      3 C         -22.6450   28.5200   28.2650 C.2       1 SAM         0.0846
      4 O         -23.4620   28.0680   27.4300 O.co2     1 SAM        -0.5643
      5 OXT       -23.0190   29.2580   29.2020 O.co2     1 SAM        -0.5643
      6 CB        -20.8590   26.7850   28.7190 C.3       1 SAM         0.0473
      7 CG        -19.5130   26.2480   28.2060 C.3       1 SAM         0.1163
      8 SD        -18.9270   24.8380   28.9160 S.3       1 SAM        -0.0103
      9 CE        -17.5430   25.3500   29.6600 C.3       1 SAM         0.0995
     10 C5'       -18.4640   23.8100   27.6860 C.3       1 SAM         0.1381
     11 C4'       -19.5290   22.8820   27.0670 C.3       1 SAM         0.1350
     12 O4'       -19.8160   21.7540   27.9050 O.3       1 SAM        -0.3344
     13 C3'       -20.8740   23.5410   26.7970 C.3       1 SAM         0.1168
     14 O3'       -20.9300   24.1700   25.5160 O.3       1 SAM        -0.3863
     15 C2'       -21.8750   22.4190   26.9230 C.3       1 SAM         0.1386
     16 O2'       -21.9540   21.7010   25.6850 O.3       1 SAM        -0.3836
     17 C1'       -21.2290   21.5110   27.9430 C.3       1 SAM         0.2011
     18 N9        -21.7250   21.8140   29.3120 N.pl3     1 SAM        -0.1919
     19 C8        -21.0330   22.4010   30.3110 C.2       1 SAM         0.1123
     20 N7        -21.7820   22.4910   31.4420 N.2       1 SAM        -0.2958
     21 C5        -22.9800   21.9370   31.1670 C.ar      1 SAM         0.1045
     22 C6        -24.2380   21.6950   31.9020 C.ar      1 SAM         0.1298
     23 N6        -24.3820   22.0700   33.1970 N.pl3     1 SAM        -0.3152
     24 N1        -25.2430   21.0940   31.2320 N.ar      1 SAM        -0.2698
     25 C2        -25.1150   20.7030   29.9550 C.ar      1 SAM         0.0533
     26 N3        -24.0080   20.8920   29.2240 N.ar      1 SAM        -0.2714
     27 C4        -22.9270   21.4900   29.7690 C.ar      1 SAM         0.1613
     28 H1        -19.3688   28.9168   28.6682 H         1 SAM         0.2010
     29 H2        -20.5665   29.2167   29.7567 H         1 SAM         0.2010
     30 H3        -20.4974   30.0727   28.3524 H         1 SAM         0.2010
     31 H4        -20.9367   28.1546   27.0524 H         1 SAM         0.1026
     32 H5        -21.6556   26.0818   28.4348 H         1 SAM         0.0385
     33 H6        -20.8162   26.8672   29.8151 H         1 SAM         0.0385
     34 H7        -18.7609   27.0351   28.3633 H         1 SAM         0.0843
     35 H8        -19.6224   26.0553   27.1286 H         1 SAM         0.0843
     36 H9        -17.0634   24.4999   30.1673 H         1 SAM         0.0803
     37 H10       -17.7897   26.1263   30.3992 H         1 SAM         0.0803
     38 H11       -16.8546   25.7645   28.9088 H         1 SAM         0.0803
     39 H12       -17.6638   23.1678   28.0825 H         1 SAM         0.0867
     40 H13       -18.0644   24.4343   26.8732 H         1 SAM         0.0867
     41 H14       -19.1238   22.5202   26.1105 H         1 SAM         0.0671
     42 H15       -21.0727   24.3048   27.5633 H         1 SAM         0.0649
     43 H16       -21.7856   24.5649   25.3955 H         1 SAM         0.2100
     44 H17       -22.8654   22.7771   27.2406 H         1 SAM         0.0676
     45 H18       -22.5851   20.9959   25.7689 H         1 SAM         0.2101
     46 H19       -21.4427   20.4605   27.6964 H         1 SAM         0.0996
     47 H20       -20.0075   22.7565   30.2226 H         1 SAM         0.1349
     48 H21       -25.2687   21.8909   33.6895 H         1 SAM         0.1820
     49 H22       -23.6047   22.5340   33.6883 H         1 SAM         0.1820
     50 H23       -25.9565   20.2050   29.4871 H         1 SAM         0.0996
@<TRIPOS>BOND
     1    1    2 1  
     2    2    3 1  
     3    2    6 1  
     4    3    4 ar 
     5    3    5 ar 
     6    6    7 1  
     7    7    8 1  
     8    8    9 1  
     9    8   10 1  
    10   10   11 1  
    11   11   12 1  
    12   11   13 1  
    13   12   17 1  
    14   13   14 1  
    15   13   15 1  
    16   15   16 1  
    17   15   17 1  
    18   17   18 1  
    19   18   19 1  
    20   18   27 1  
    21   19   20 2  
    22   20   21 1  
    23   21   22 ar 
    24   21   27 ar 
    25   22   23 1  
    26   22   24 ar 
    27   24   25 ar 
    28   25   26 ar 
    29   26   27 ar 
    30    1   28 1  
    31    1   29 1  
    32    1   30 1  
    33    2   31 1  
    34    6   32 1  
    35    6   33 1  
    36    7   34 1  
    37    7   35 1  
    38    9   36 1  
    39    9   37 1  
    40    9   38 1  
    41   10   39 1  
    42   10   40 1  
    43   11   41 1  
    44   13   42 1  
    45   14   43 1  
    46   15   44 1  
    47   16   45 1  
    48   17   46 1  
    49   19   47 1  
    50   23   48 1  
    51   23   49 1  
    52   25   50 1  
@<TRIPOS>SUBSTRUCTURE
     1 SAM         1

