5h5f_ligand
  -I-interpret- 

 51 53  0  0  0  0  0  0  0  0999 V2000
  -20.3380   29.1720   28.7760 N   0  3  0  0  0
  -21.1800   28.1720   28.1250 C   0  0  0  0  0
  -22.6450   28.5200   28.2650 C   0  0  0  0  0
  -23.4620   28.0680   27.4300 O   0  0  0  0  0
  -23.0190   29.2580   29.2020 O   0  0  0  0  0
  -20.8590   26.7850   28.7190 C   0  0  0  0  0
  -19.5130   26.2480   28.2060 C   0  0  0  0  0
  -18.9270   24.8380   28.9160 S   0  0  0  0  0
  -17.5430   25.3500   29.6600 C   0  0  0  0  0
  -18.4640   23.8100   27.6860 C   0  0  0  0  0
  -19.5290   22.8820   27.0670 C   0  0  0  0  0
  -19.8160   21.7540   27.9050 O   0  0  0  0  0
  -20.8740   23.5410   26.7970 C   0  0  0  0  0
  -20.9300   24.1700   25.5160 O   0  0  0  0  0
  -21.8750   22.4190   26.9230 C   0  0  0  0  0
  -21.9540   21.7010   25.6850 O   0  0  0  0  0
  -21.2290   21.5110   27.9430 C   0  0  0  0  0
  -21.7250   21.8140   29.3120 N   0  0  0  0  0
  -21.0330   22.4010   30.3110 C   0  0  0  0  0
  -21.7820   22.4910   31.4420 N   0  0  0  0  0
  -22.9800   21.9370   31.1670 C   0  0  0  0  0
  -24.2380   21.6950   31.9020 C   0  0  0  0  0
  -24.3820   22.0700   33.1970 N   0  0  0  0  0
  -25.2430   21.0940   31.2320 N   0  0  0  0  0
  -25.1150   20.7030   29.9550 C   0  0  0  0  0
  -24.0080   20.8920   29.2240 N   0  0  0  0  0
  -22.9270   21.4900   29.7690 C   0  0  0  0  0
  -20.5443   30.0927   28.3885 H   0  0  0  0  0
  -20.5271   29.1735   29.7783 H   0  0  0  0  0
  -19.3566   28.9458   28.6142 H   0  0  0  0  0
  -20.9669   28.1538   27.0562 H   0  0  0  0  0
  -22.9961   27.5258   26.7893 H   0  0  0  0  0
  -21.6440   26.0912   28.4181 H   0  0  0  0  0
  -20.8015   26.8795   29.8034 H   0  0  0  0  0
  -18.7794   27.0213   28.4337 H   0  0  0  0  0
  -19.6716   26.0066   27.1550 H   0  0  0  0  0
  -16.8618   25.7605   28.9146 H   0  0  0  0  0
  -17.7888   26.1192   30.3921 H   0  0  0  0  0
  -17.0688   24.5068   30.1623 H   0  0  0  0  0
  -17.7276   23.1422   28.1331 H   0  0  0  0  0
  -18.1452   24.4621   26.8728 H   0  0  0  0  0
  -19.0692   22.5918   26.1223 H   0  0  0  0  0
  -21.0735   24.3519   27.4976 H   0  0  0  0  0
  -21.7946   24.5691   25.3942 H   0  0  0  0  0
  -22.8748   22.7649   27.1856 H   0  0  0  0  0
  -22.5917   20.9885   25.7698 H   0  0  0  0  0
  -21.4677   20.4733   27.7099 H   0  0  0  0  0
  -20.0065   22.7568   30.2225 H   0  0  0  0  0
  -23.6122   22.5295   33.6835 H   0  0  0  0  0
  -25.2601   21.8926   33.6847 H   0  0  0  0  0
  -25.9612   20.2022   29.4845 H   0  0  0  0  0
  1  2  1  0  0  0
  2  3  1  0  0  0
  2  6  1  0  0  0
  3  4  1  0  0  0
  3  5  2  0  0  0
  6  7  1  0  0  0
  7  8  1  0  0  0
  8  9  1  0  0  0
  8 10  1  0  0  0
 10 11  1  0  0  0
 11 12  1  0  0  0
 11 13  1  0  0  0
 12 17  1  0  0  0
 13 14  1  0  0  0
 13 15  1  0  0  0
 15 16  1  0  0  0
 15 17  1  0  0  0
 17 18  1  0  0  0
 18 19  4  0  0  0
 18 27  4  0  0  0
 19 20  4  0  0  0
 20 21  4  0  0  0
 21 22  4  0  0  0
 21 27  4  0  0  0
 22 23  1  0  0  0
 22 24  4  0  0  0
 24 25  4  0  0  0
 25 26  4  0  0  0
 26 27  4  0  0  0
  1 28  1  0  0  0
  1 29  1  0  0  0
  1 30  1  0  0  0
  2 31  1  0  0  0
  4 32  1  0  0  0
  6 33  1  0  0  0
  6 34  1  0  0  0
  7 35  1  0  0  0
  7 36  1  0  0  0
  9 37  1  0  0  0
  9 38  1  0  0  0
  9 39  1  0  0  0
 10 40  1  0  0  0
 10 41  1  0  0  0
 11 42  1  0  0  0
 13 43  1  0  0  0
 14 44  1  0  0  0
 15 45  1  0  0  0
 16 46  1  0  0  0
 17 47  1  0  0  0
 19 48  1  0  0  0
 23 49  1  0  0  0
 23 50  1  0  0  0
 25 51  1  0  0  0
M  END
$$$$
