### 
### Created by X-TOOL on Mon Sep 10 21:13:22 2018
### 

@<TRIPOS>MOLECULE
5e2r_ligand
   41    43     1     0     0
SMALL
GAST_HUCK


@<TRIPOS>ATOM
      1 C3         -0.2810   10.0190   14.3880 C.ar      1 520        -0.0548
      2 C2          0.1650   11.0710   15.1810 C.ar      1 520        -0.0382
      3 C1         -0.2070   12.3770   14.8790 C.ar      1 520         0.0411
      4 N1          0.2270   13.4100   15.6580 N.pl3     1 520        -0.3338
      5 C6         -1.0270   12.6290   13.7840 C.ar      1 520        -0.0382
      6 C5         -1.4730   11.5780   12.9920 C.ar      1 520        -0.0548
      7 C4         -1.1000   10.2720   13.2930 C.ar      1 520         0.0203
      8 C7         -1.5740    9.1470   12.4330 C.2       1 520         0.1500
      9 O1         -1.5040    9.2280   11.2150 O.2       1 520        -0.3747
     10 C16        -2.1490    7.9240   13.0720 C.ar      1 520         0.0312
     11 C17        -1.9030    6.6720   12.5200 C.ar      1 520        -0.0436
     12 C18        -2.4880    5.5380   13.0740 C.ar      1 520        -0.0488
     13 C15        -2.9730    8.0440   14.1840 C.ar      1 520        -0.0436
     14 C14        -3.5580    6.9110   14.7380 C.ar      1 520        -0.0488
     15 C19        -3.3190    5.6590   14.1810 C.ar      1 520        -0.0139
     16 C10        -3.9370    4.5380   14.7240 C.ar      1 520        -0.0151
     17 C9         -3.1900    3.4070   15.0340 C.ar      1 520        -0.0511
     18 C8         -3.8050    2.3130   15.6340 C.ar      1 520        -0.0338
     19 C13        -5.1640    2.3480   15.9230 C.ar      1 520         0.1086
     20 O3         -5.4330    1.0420   18.0980 O.2       1 520        -0.1504
     21 O2         -7.3400    1.1000   16.5570 O.2       1 520        -0.1504
     22 C12        -5.9140    3.4750   15.6040 C.ar      1 520        -0.0338
     23 C11        -5.2990    4.5690   15.0040 C.ar      1 520        -0.0511
     24 S2         -5.9220    0.9910   16.7490 S.o2      1 520         0.0662
     25 N2         -5.4030   -0.3420   16.0540 N.am      1 520        -0.2609
     26 H1          0.0099    9.0017   14.6236 H         1 520         0.0637
     27 H2          0.8028   10.8731   16.0349 H         1 520         0.0531
     28 H3         -0.0495   14.3763   15.4328 H         1 520         0.1740
     29 H4          0.8310   13.2234   16.4711 H         1 520         0.1740
     30 H5         -1.3183   13.6462   13.5483 H         1 520         0.0531
     31 H6         -2.1120   11.7759   12.1390 H         1 520         0.0637
     32 H7         -1.2543    6.5793   11.6565 H         1 520         0.0667
     33 H8         -2.2960    4.5621   12.6430 H         1 520         0.0634
     34 H9         -3.1595    9.0193   14.6189 H         1 520         0.0667
     35 H10        -4.2014    7.0034   15.6055 H         1 520         0.0634
     36 H11        -2.1301    3.3778   14.8085 H         1 520         0.0630
     37 H12        -3.2230    1.4313   15.8767 H         1 520         0.0639
     38 H13        -6.9755    3.5008   15.8224 H         1 520         0.0639
     39 H14        -5.8826    5.4477   14.7541 H         1 520         0.0630
     40 H15        -5.7199   -1.2323   16.3809 H         1 520         0.1635
     41 H16        -4.7597   -0.2898   15.2901 H         1 520         0.1635
@<TRIPOS>BOND
     1    1    2 ar 
     2    1    7 ar 
     3    2    3 ar 
     4    3    4 1  
     5    3    5 ar 
     6    5    6 ar 
     7    6    7 ar 
     8    7    8 1  
     9    8    9 2  
    10    8   10 1  
    11   10   11 ar 
    12   10   13 ar 
    13   11   12 ar 
    14   12   15 ar 
    15   13   14 ar 
    16   14   15 ar 
    17   15   16 1  
    18   16   17 ar 
    19   16   23 ar 
    20   17   18 ar 
    21   18   19 ar 
    22   19   22 ar 
    23   19   24 1  
    24   24   20 2  
    25   24   21 2  
    26   22   23 ar 
    27   24   25 am 
    28    1   26 1  
    29    2   27 1  
    30    4   28 1  
    31    4   29 1  
    32    5   30 1  
    33    6   31 1  
    34   11   32 1  
    35   12   33 1  
    36   13   34 1  
    37   14   35 1  
    38   17   36 1  
    39   18   37 1  
    40   22   38 1  
    41   23   39 1  
    42   25   40 1  
    43   25   41 1  
@<TRIPOS>SUBSTRUCTURE
     1 520         1

