5e2r_ligand
  -I-interpret- 

 41 43  0  0  0  0  0  0  0  0999 V2000
   -0.2810   10.0190   14.3880 C   0  0  0  0  0
    0.1650   11.0710   15.1810 C   0  0  0  0  0
   -0.2070   12.3770   14.8790 C   0  0  0  0  0
    0.2270   13.4100   15.6580 N   0  0  0  0  0
   -1.0270   12.6290   13.7840 C   0  0  0  0  0
   -1.4730   11.5780   12.9920 C   0  0  0  0  0
   -1.1000   10.2720   13.2930 C   0  0  0  0  0
   -1.5740    9.1470   12.4330 C   0  0  0  0  0
   -1.5040    9.2280   11.2150 O   0  0  0  0  0
   -2.1490    7.9240   13.0720 C   0  0  0  0  0
   -1.9030    6.6720   12.5200 C   0  0  0  0  0
   -2.4880    5.5380   13.0740 C   0  0  0  0  0
   -2.9730    8.0440   14.1840 C   0  0  0  0  0
   -3.5580    6.9110   14.7380 C   0  0  0  0  0
   -3.3190    5.6590   14.1810 C   0  0  0  0  0
   -3.9370    4.5380   14.7240 C   0  0  0  0  0
   -3.1900    3.4070   15.0340 C   0  0  0  0  0
   -3.8050    2.3130   15.6340 C   0  0  0  0  0
   -5.1640    2.3480   15.9230 C   0  0  0  0  0
   -5.4330    1.0420   18.0980 O   0  0  0  0  0
   -7.3400    1.1000   16.5570 O   0  0  0  0  0
   -5.9140    3.4750   15.6040 C   0  0  0  0  0
   -5.2990    4.5690   15.0040 C   0  0  0  0  0
   -5.9220    0.9910   16.7490 S   0  0  0  0  0
   -5.4030   -0.3420   16.0540 N   0  0  0  0  0
    0.0115    8.9960   14.6249 H   0  0  0  0  0
    0.8064   10.8720   16.0396 H   0  0  0  0  0
    0.8252   13.2252   16.4632 H   0  0  0  0  0
   -0.0468   14.3669   15.4350 H   0  0  0  0  0
   -1.3199   13.6518   13.5470 H   0  0  0  0  0
   -2.1155   11.7770   12.1343 H   0  0  0  0  0
   -1.2507    6.5788   11.6517 H   0  0  0  0  0
   -2.2949    4.5567   12.6406 H   0  0  0  0  0
   -3.1605    9.0246   14.6213 H   0  0  0  0  0
   -4.2050    7.0039   15.6103 H   0  0  0  0  0
   -2.1243    3.3776   14.8072 H   0  0  0  0  0
   -3.2198    1.4264   15.8780 H   0  0  0  0  0
   -6.9813    3.5010   15.8237 H   0  0  0  0  0
   -5.8858    5.4525   14.7527 H   0  0  0  0  0
   -4.8175   -0.9944   16.5755 H   0  0  0  0  0
   -5.6557   -0.5446   15.0868 H   0  0  0  0  0
  1  2  4  0  0  0
  1  7  4  0  0  0
  2  3  4  0  0  0
  3  4  1  0  0  0
  3  5  4  0  0  0
  5  6  4  0  0  0
  6  7  4  0  0  0
  7  8  1  0  0  0
  8  9  2  0  0  0
  8 10  1  0  0  0
 10 11  4  0  0  0
 10 13  4  0  0  0
 11 12  4  0  0  0
 12 15  4  0  0  0
 13 14  4  0  0  0
 14 15  4  0  0  0
 15 16  1  0  0  0
 16 17  4  0  0  0
 16 23  4  0  0  0
 17 18  4  0  0  0
 18 19  4  0  0  0
 19 22  4  0  0  0
 19 24  1  0  0  0
 24 20  2  0  0  0
 24 21  2  0  0  0
 22 23  4  0  0  0
 24 25  1  0  0  0
  1 26  1  0  0  0
  2 27  1  0  0  0
  4 28  1  0  0  0
  4 29  1  0  0  0
  5 30  1  0  0  0
  6 31  1  0  0  0
 11 32  1  0  0  0
 12 33  1  0  0  0
 13 34  1  0  0  0
 14 35  1  0  0  0
 17 36  1  0  0  0
 18 37  1  0  0  0
 22 38  1  0  0  0
 23 39  1  0  0  0
 25 40  1  0  0  0
 25 41  1  0  0  0
M  END
$$$$
