5vb5_ligand
  -I-interpret- 

 77 79  0  0  0  0  0  0  0  0999 V2000
    0.5900   24.4860   15.6580 C   0  0  0  0  0
   -0.1800   24.4810   14.3380 C   0  0  0  0  0
   -1.6420   24.7190   14.5970 C   0  0  0  0  0
   -7.1120   22.8110   13.8140 C   0  0  0  0  0
   -8.8770   23.0220   15.4300 C   0  0  0  0  0
  -11.1250   23.8090   15.0030 C   0  0  0  0  0
  -13.4210   22.9870   14.4820 C   0  0  0  0  0
  -13.1580   21.5380   14.7870 C   0  0  0  0  0
  -13.9340   20.8770   15.7200 C   0  0  0  0  0
  -12.6660   18.8790   15.3680 C   0  0  0  0  0
  -11.8900   19.5420   14.4340 C   0  0  0  0  0
   -7.9320   22.9740   16.4440 C   0  0  0  0  0
   -4.2240   24.9270   12.6740 O   0  0  0  0  0
   -4.4470   24.9980   13.8630 C   0  0  0  0  0
   -5.1540   26.0330   14.3600 N   0  0  0  0  0
   -5.6530   27.0850   13.4640 C   0  0  0  0  0
   -7.1510   27.3370   13.6630 C   0  0  0  0  0
   -7.7200   26.7350   14.9530 C   0  0  0  0  0
   -9.0230   27.4480   15.3120 C   0  0  0  0  0
   -6.7240   26.8970   16.1020 C   0  0  0  0  0
   -5.4290   26.1300   15.8020 C   0  0  0  0  0
   -3.9380   23.9190   14.7820 C   0  0  0  0  0
   -2.5130   23.6950   14.5380 N   0  0  0  0  0
   -2.0300   25.8340   14.8510 O   0  0  0  0  0
    1.9540   23.8350   15.4420 C   0  0  0  0  0
    1.7540   22.3540   15.1260 C   0  0  0  0  0
    2.8050   23.9840   16.7040 C   0  0  0  0  0
   -4.7080   22.6300   14.5060 C   0  0  0  0  0
   -6.1740   22.7720   14.8310 C   0  0  0  0  0
   -6.5890   22.8520   16.1470 C   0  0  0  0  0
   -8.4570   22.9320   14.1080 C   0  0  0  0  0
  -10.2360   23.1300   15.7500 N   0  0  0  0  0
  -10.7680   24.3840   14.0030 O   0  0  0  0  0
  -12.5750   23.8620   15.4160 C   0  0  0  0  0
  -12.1360   20.8710   14.1440 C   0  0  0  0  0
  -12.3530   17.2140   15.7330 Cl  0  0  0  0  0
  -13.6910   19.5490   16.0090 C   0  0  0  0  0
    0.0322   23.9284   16.4104 H   0  0  0  0  0
    0.7232   25.5119   16.0013 H   0  0  0  0  0
   -0.0540   23.5135   13.8521 H   0  0  0  0  0
    0.2045   25.2724   13.6947 H   0  0  0  0  0
   -6.7881   22.7459   12.7753 H   0  0  0  0  0
  -14.4779   23.2063   14.6337 H   0  0  0  0  0
  -13.1558   23.1962   13.4457 H   0  0  0  0  0
  -14.7400   21.4054   16.2291 H   0  0  0  0  0
  -11.0826   19.0151   13.9255 H   0  0  0  0  0
   -8.2522   23.0331   17.4842 H   0  0  0  0  0
   -5.4930   26.7634   12.4349 H   0  0  0  0  0
   -5.1174   28.0078   13.6868 H   0  0  0  0  0
   -7.6713   26.8650   12.8296 H   0  0  0  0  0
   -7.2919   28.4163   13.7208 H   0  0  0  0  0
   -7.9068   25.6730   14.7936 H   0  0  0  0  0
   -8.8258   28.5097   15.4604 H   0  0  0  0  0
   -9.7408   27.3202   14.5017 H   0  0  0  0  0
   -9.4286   27.0209   16.2291 H   0  0  0  0  0
   -7.1680   26.4994   17.0146 H   0  0  0  0  0
   -6.4898   27.9548   16.2215 H   0  0  0  0  0
   -4.6033   26.6688   16.2667 H   0  0  0  0  0
   -5.5387   25.1183   16.1926 H   0  0  0  0  0
   -4.0805   24.2232   15.8189 H   0  0  0  0  0
   -2.1775   22.7564   14.3217 H   0  0  0  0  0
    2.4653   24.3221   14.6117 H   0  0  0  0  0
    2.7242   21.8839   14.9653 H   0  0  0  0  0
    1.2485   21.8705   15.9619 H   0  0  0  0  0
    1.1471   22.2546   14.2261 H   0  0  0  0  0
    2.2998   23.5010   17.5404 H   0  0  0  0  0
    3.7755   23.5144   16.5438 H   0  0  0  0  0
    2.9440   25.0425   16.9241 H   0  0  0  0  0
   -4.2928   21.8420   15.1343 H   0  0  0  0  0
   -4.6135   22.3951   13.4458 H   0  0  0  0  0
   -5.8547   22.8187   16.9519 H   0  0  0  0  0
   -9.1899   22.9569   13.3016 H   0  0  0  0  0
  -10.5701   22.6684   16.5960 H   0  0  0  0  0
  -12.9265   24.8921   15.3572 H   0  0  0  0  0
  -12.6701   23.4919   16.4368 H   0  0  0  0  0
  -11.5231   21.3913   13.4080 H   0  0  0  0  0
  -14.3073   19.0291   16.7425 H   0  0  0  0  0
  2  1  1  0  0  0
  1 25  1  0  0  0
  3  2  1  0  0  0
 23  3  1  0  0  0
  3 24  2  0  0  0
 29  4  4  0  0  0
  4 31  4  0  0  0
  5 12  4  0  0  0
 31  5  4  0  0  0
  5 32  1  0  0  0
 32  6  1  0  0  0
  6 33  2  0  0  0
  6 34  1  0  0  0
  7  8  1  0  0  0
 34  7  1  0  0  0
  8  9  4  0  0  0
  8 35  4  0  0  0
  9 37  4  0  0  0
 11 10  4  0  0  0
 10 36  1  0  0  0
 37 10  4  0  0  0
 35 11  4  0  0  0
 12 30  4  0  0  0
 14 13  2  0  0  0
 14 15  1  0  0  0
 22 14  1  0  0  0
 15 16  1  0  0  0
 15 21  1  0  0  0
 16 17  1  0  0  0
 17 18  1  0  0  0
 18 19  1  0  0  0
 20 18  1  0  0  0
 21 20  1  0  0  0
 22 23  1  0  0  0
 28 22  1  0  0  0
 25 26  1  0  0  0
 25 27  1  0  0  0
 28 29  1  0  0  0
 29 30  4  0  0  0
  1 38  1  0  0  0
  1 39  1  0  0  0
  2 40  1  0  0  0
  2 41  1  0  0  0
  4 42  1  0  0  0
  7 43  1  0  0  0
  7 44  1  0  0  0
  9 45  1  0  0  0
 11 46  1  0  0  0
 12 47  1  0  0  0
 16 48  1  0  0  0
 16 49  1  0  0  0
 17 50  1  0  0  0
 17 51  1  0  0  0
 18 52  1  0  0  0
 19 53  1  0  0  0
 19 54  1  0  0  0
 19 55  1  0  0  0
 20 56  1  0  0  0
 20 57  1  0  0  0
 21 58  1  0  0  0
 21 59  1  0  0  0
 22 60  1  0  0  0
 23 61  1  0  0  0
 25 62  1  0  0  0
 26 63  1  0  0  0
 26 64  1  0  0  0
 26 65  1  0  0  0
 27 66  1  0  0  0
 27 67  1  0  0  0
 27 68  1  0  0  0
 28 69  1  0  0  0
 28 70  1  0  0  0
 30 71  1  0  0  0
 31 72  1  0  0  0
 32 73  1  0  0  0
 34 74  1  0  0  0
 34 75  1  0  0  0
 35 76  1  0  0  0
 37 77  1  0  0  0
M  END
$$$$
