### 
### Created by X-TOOL on Mon Sep 10 21:13:32 2018
### 

@<TRIPOS>MOLECULE
5vb5_ligand
   77    79     1     0     0
SMALL
GAST_HUCK


@<TRIPOS>ATOM
      1 C4          0.5900   24.4860   15.6580 C.3       1 92A        -0.0337
      2 C5         -0.1800   24.4810   14.3380 C.3       1 92A         0.0376
      3 C6         -1.6420   24.7190   14.5970 C.2       1 92A         0.1783
      4 C13        -7.1120   22.8110   13.8140 C.ar      1 92A        -0.0730
      5 C15        -8.8770   23.0220   15.4300 C.ar      1 92A         0.0596
      6 C17       -11.1250   23.8090   15.0030 C.2       1 92A         0.2038
      7 C20       -13.4210   22.9870   14.4820 C.3       1 92A        -0.0016
      8 C21       -13.1580   21.5380   14.7870 C.ar      1 92A        -0.0405
      9 C22       -13.9340   20.8770   15.7200 C.ar      1 92A        -0.0596
     10 C24       -12.6660   18.8790   15.3680 C.ar      1 92A         0.0330
     11 C26       -11.8900   19.5420   14.4340 C.ar      1 92A        -0.0546
     12 C28        -7.9320   22.9740   16.4440 C.ar      1 92A        -0.0473
     13 O31        -4.2240   24.9270   12.6740 O.2       1 92A        -0.3942
     14 C30        -4.4470   24.9980   13.8630 C.2       1 92A         0.2059
     15 N32        -5.1540   26.0330   14.3600 N.am      1 92A        -0.2712
     16 C38        -5.6530   27.0850   13.4640 C.3       1 92A         0.0342
     17 C37        -7.1510   27.3370   13.6630 C.3       1 92A        -0.0299
     18 C35        -7.7200   26.7350   14.9530 C.3       1 92A        -0.0402
     19 C36        -9.0230   27.4480   15.3120 C.3       1 92A        -0.0623
     20 C34        -6.7240   26.8970   16.1020 C.3       1 92A        -0.0299
     21 C33        -5.4290   26.1300   15.8020 C.3       1 92A         0.0342
     22 C9         -3.9380   23.9190   14.7820 C.3       1 92A         0.1385
     23 N8         -2.5130   23.6950   14.5380 N.am      1 92A        -0.2641
     24 O7         -2.0300   25.8340   14.8510 O.2       1 92A        -0.3969
     25 C2          1.9540   23.8350   15.4420 C.3       1 92A        -0.0447
     26 C3          1.7540   22.3540   15.1260 C.3       1 92A        -0.0625
     27 C1          2.8050   23.9840   16.7040 C.3       1 92A        -0.0625
     28 C11        -4.7080   22.6300   14.5060 C.3       1 92A         0.0146
     29 C12        -6.1740   22.7720   14.8310 C.ar      1 92A        -0.0531
     30 C29        -6.5890   22.8520   16.1470 C.ar      1 92A        -0.0730
     31 C14        -8.4570   22.9320   14.1080 C.ar      1 92A        -0.0473
     32 N16       -10.2360   23.1300   15.7500 N.am      1 92A        -0.2376
     33 O18       -10.7680   24.3840   14.0030 O.2       1 92A        -0.3856
     34 C19       -12.5750   23.8620   15.4160 C.3       1 92A         0.0525
     35 C27       -12.1360   20.8710   14.1440 C.ar      1 92A        -0.0596
     36 CL1       -12.3530   17.2140   15.7330 Cl        1 92A        -0.0771
     37 C23       -13.6910   19.5490   16.0090 C.ar      1 92A        -0.0546
     38 H1          0.0273   23.9201   16.4150 H         1 92A         0.0292
     39 H2          0.7264   25.5221   16.0012 H         1 92A         0.0292
     40 H3         -0.0511   23.5065   13.8443 H         1 92A         0.0502
     41 H4          0.2090   25.2768   13.6858 H         1 92A         0.0502
     42 H5         -6.7899   22.7463   12.7810 H         1 92A         0.0520
     43 H6        -14.4874   23.2078   14.6372 H         1 92A         0.0452
     44 H7        -13.1513   23.1976   13.4366 H         1 92A         0.0452
     45 H8        -14.7356   21.4025   16.2263 H         1 92A         0.0557
     46 H9        -11.0870   19.0180   13.9283 H         1 92A         0.0606
     47 H10        -8.2504   23.0328   17.4785 H         1 92A         0.0487
     48 H11        -5.4788   26.7779   12.4222 H         1 92A         0.0522
     49 H12        -5.1049   28.0166   13.6683 H         1 92A         0.0522
     50 H13        -7.6913   26.9002   12.8102 H         1 92A         0.0287
     51 H14        -7.3187   28.4239   13.6856 H         1 92A         0.0287
     52 H15        -7.9198   25.6649   14.7953 H         1 92A         0.0299
     53 H16        -9.4334   27.0178   16.2375 H         1 92A         0.0232
     54 H17        -9.7483   27.3198   14.4950 H         1 92A         0.0232
     55 H18        -8.8253   28.5196   15.4620 H         1 92A         0.0232
     56 H19        -7.1713   26.5044   17.0271 H         1 92A         0.0287
     57 H20        -6.4910   27.9642   16.2315 H         1 92A         0.0287
     58 H21        -4.5901   26.6505   16.2871 H         1 92A         0.0522
     59 H22        -5.5173   25.1138   16.2136 H         1 92A         0.0522
     60 H23        -4.0884   24.2236   15.8282 H         1 92A         0.0820
     61 H24        -2.1841   22.7748   14.3260 H         1 92A         0.1884
     62 H25         2.4643   24.3242   14.5992 H         1 92A         0.0297
     63 H26         2.7328   21.8772   14.9689 H         1 92A         0.0232
     64 H27         1.1461   22.2523   14.2149 H         1 92A         0.0232
     65 H28         1.2392   21.8659   15.9667 H         1 92A         0.0232
     66 H29         2.9460   25.0519   16.9271 H         1 92A         0.0232
     67 H30         3.7848   23.5105   16.5436 H         1 92A         0.0232
     68 H31         2.2963   23.4970   17.5490 H         1 92A         0.0232
     69 H32        -4.2836   21.8231   15.1214 H         1 92A         0.0446
     70 H33        -4.6027   22.3734   13.4416 H         1 92A         0.0446
     71 H34        -5.8588   22.8189   16.9475 H         1 92A         0.0520
     72 H35        -9.1859   22.9568   13.3060 H         1 92A         0.0487
     73 H36       -10.5636   22.6775   16.5794 H         1 92A         0.2234
     74 H37       -12.9309   24.9014   15.3623 H         1 92A         0.0530
     75 H38       -12.6732   23.4936   16.4478 H         1 92A         0.0530
     76 H39       -11.5264   21.3885   13.4121 H         1 92A         0.0557
     77 H40       -14.3039   19.0319   16.7384 H         1 92A         0.0606
@<TRIPOS>BOND
     1    2    1 1  
     2    1   25 1  
     3    3    2 1  
     4   23    3 am 
     5    3   24 2  
     6   29    4 ar 
     7    4   31 ar 
     8    5   12 ar 
     9   31    5 ar 
    10    5   32 1  
    11   32    6 am 
    12    6   33 2  
    13    6   34 1  
    14    7    8 1  
    15   34    7 1  
    16    8    9 ar 
    17    8   35 ar 
    18    9   37 ar 
    19   11   10 ar 
    20   10   36 1  
    21   37   10 ar 
    22   35   11 ar 
    23   12   30 ar 
    24   14   13 2  
    25   14   15 am 
    26   22   14 1  
    27   15   16 1  
    28   15   21 1  
    29   16   17 1  
    30   17   18 1  
    31   18   19 1  
    32   20   18 1  
    33   21   20 1  
    34   22   23 1  
    35   28   22 1  
    36   25   26 1  
    37   25   27 1  
    38   28   29 1  
    39   29   30 ar 
    40    1   38 1  
    41    1   39 1  
    42    2   40 1  
    43    2   41 1  
    44    4   42 1  
    45    7   43 1  
    46    7   44 1  
    47    9   45 1  
    48   11   46 1  
    49   12   47 1  
    50   16   48 1  
    51   16   49 1  
    52   17   50 1  
    53   17   51 1  
    54   18   52 1  
    55   19   53 1  
    56   19   54 1  
    57   19   55 1  
    58   20   56 1  
    59   20   57 1  
    60   21   58 1  
    61   21   59 1  
    62   22   60 1  
    63   23   61 1  
    64   25   62 1  
    65   26   63 1  
    66   26   64 1  
    67   26   65 1  
    68   27   66 1  
    69   27   67 1  
    70   27   68 1  
    71   28   69 1  
    72   28   70 1  
    73   30   71 1  
    74   31   72 1  
    75   32   73 1  
    76   34   74 1  
    77   34   75 1  
    78   35   76 1  
    79   37   77 1  
@<TRIPOS>SUBSTRUCTURE
     1 92A         1

