### 
### Created by X-TOOL on Mon Sep 10 21:13:30 2018
### 

@<TRIPOS>MOLECULE
5m77_ligand
   66    68     1     0     0
SMALL
GAST_HUCK


@<TRIPOS>ATOM
      1 O17         4.1050  -32.8090   -4.9920 O.3       1 7K2        -0.3857
      2 C12         3.1530  -32.1040   -5.8390 C.3       1 7K2         0.1188
      3 C11         2.3730  -31.1100   -4.9400 C.3       1 7K2         0.1125
      4 O16         1.6350  -31.7790   -3.9550 O.3       1 7K2        -0.3865
      5 C10         3.3610  -30.1910   -4.2770 C.3       1 7K2         0.1104
      6 O15         2.6360  -29.0590   -3.6700 O.3       1 7K2        -0.3865
      7 C9          4.3270  -29.5190   -5.2910 C.3       1 7K2         0.0975
      8 C13         5.5350  -28.7510   -4.6750 C.3       1 7K2         0.0250
      9 O8          4.9070  -30.4330   -6.2410 O.3       1 7K2        -0.3568
     10 C7          3.9720  -31.3180   -6.8730 C.3       1 7K2         0.1330
     11 S1          2.8070  -30.5370   -8.0150 S.3       1 7K2        -0.1266
     12 C6          3.9140  -29.9730   -9.3010 C.3       1 7K2         0.0063
     13 C5          4.0300  -30.8600  -10.5100 C.3       1 7K2         0.0367
     14 C1          2.7040  -30.7720  -11.3280 C.3       1 7K2        -0.0274
     15 N           2.7550  -31.6060  -12.5670 N.4       1 7K2         0.2292
     16 C2          3.9310  -31.2680  -13.4210 C.3       1 7K2        -0.0045
     17 C3          5.2240  -31.3210  -12.6600 C.3       1 7K2         0.1209
     18 O3          6.2690  -30.8730  -13.5740 O.3       1 7K2        -0.3839
     19 C4          5.1890  -30.4490  -11.4330 C.3       1 7K2         0.0944
     20 O4          6.4000  -30.5170  -10.7320 O.3       1 7K2        -0.3885
     21 C7          7.3300  -28.9880   -2.5960 C.3       1 7K3         0.1331
     22 C9          5.6520  -29.2370   -0.8570 C.3       1 7K3         0.1115
     23 C12         8.3410  -29.7600   -1.7520 C.3       1 7K3         0.1188
     24 C13         4.7210  -28.3640   -0.0170 C.3       1 7K3         0.0730
     25 O17         9.1080  -28.7720   -0.9700 O.3       1 7K3        -0.3857
     26 C11         7.6300  -30.7880   -0.8440 C.3       1 7K3         0.1126
     27 O16         8.6370  -31.3360   -0.0230 O.3       1 7K3        -0.3865
     28 C10         6.5750  -30.0910    0.0280 C.3       1 7K3         0.1118
     29 O15         5.7920  -31.0080    0.8080 O.3       1 7K3        -0.3865
     30 O14         5.4690  -27.4640    0.8450 O.3       1 7K3        -0.3924
     31 O8          6.3840  -28.3400   -1.7290 O.3       1 7K3        -0.3553
     32 S1          6.5410  -29.9870   -3.8650 S.3       1 7K3        -0.1245
     33 H1          4.5985  -33.4269   -5.5185 H         1 7K2         0.2100
     34 H2          2.4647  -32.8047   -6.3342 H         1 7K2         0.0655
     35 H3          1.6849  -30.5223   -5.5654 H         1 7K2         0.0647
     36 H4          1.1702  -31.1437   -3.4229 H         1 7K2         0.2100
     37 H5          3.9291  -30.7504   -3.5192 H         1 7K2         0.0646
     38 H6          2.0215  -29.3876   -3.0243 H         1 7K2         0.2100
     39 H7          3.7196  -28.7906   -5.8482 H         1 7K2         0.0631
     40 H8          5.1832  -28.0064   -3.9458 H         1 7K2         0.0403
     41 H9          6.1109  -28.2469   -5.4651 H         1 7K2         0.0403
     42 H10         4.5669  -32.0371   -7.4552 H         1 7K2         0.0740
     43 H11         4.9170  -29.8721   -8.8607 H         1 7K2         0.0382
     44 H12         3.5614  -28.9876   -9.6397 H         1 7K2         0.0382
     45 H13         4.1906  -31.8955  -10.1754 H         1 7K2         0.0387
     46 H14         2.5309  -29.7236  -11.6124 H         1 7K2         0.0818
     47 H15         1.8737  -31.1229  -10.6976 H         1 7K2         0.0818
     48 H16         1.9123  -31.4516  -13.0980 H         1 7K2         0.2014
     49 H17         2.8129  -32.5772  -12.3033 H         1 7K2         0.2014
     50 H18         3.7974  -30.2518  -13.8203 H         1 7K2         0.0840
     51 H19         3.9812  -31.9854  -14.2533 H         1 7K2         0.0840
     52 H20         5.4228  -32.3574  -12.3496 H         1 7K2         0.0673
     53 H21         6.2970  -31.4498  -14.3284 H         1 7K2         0.2101
     54 H22         5.0297  -29.4087  -11.7530 H         1 7K2         0.0626
     55 H23         6.3520  -29.9594   -9.9644 H         1 7K2         0.2099
     56 H24         7.8847  -28.1975   -3.1227 H         1 7K2         0.0740
     57 H25         5.0482  -29.9191   -1.4736 H         1 7K2         0.0646
     58 H26         9.0287  -30.3030   -2.4169 H         1 7K2         0.0655
     59 H27         4.0885  -29.0129    0.6066 H         1 7K2         0.0584
     60 H28         4.0855  -27.7691   -0.6894 H         1 7K2         0.0584
     61 H29         8.5150  -28.2810   -0.4134 H         1 7K2         0.2100
     62 H30         7.1527  -31.5726   -1.4495 H         1 7K2         0.0647
     63 H31         8.2528  -31.9798    0.5605 H         1 7K2         0.2100
     64 H32         7.1031  -29.4239    0.7252 H         1 7K2         0.0647
     65 H33         6.3641  -31.4993    1.3857 H         1 7K2         0.2100
     66 H34         4.8631  -26.9368    1.3524 H         1 7K2         0.2095
@<TRIPOS>BOND
     1    2    1 1  
     2    3    2 1  
     3   10    2 1  
     4    3    4 1  
     5    5    3 1  
     6    5    6 1  
     7    7    5 1  
     8    8    7 1  
     9    7    9 1  
    10   32    8 1  
    11    9   10 1  
    12   10   11 1  
    13   11   12 1  
    14   12   13 1  
    15   13   14 1  
    16   13   19 1  
    17   14   15 1  
    18   15   16 1  
    19   17   16 1  
    20   17   18 1  
    21   19   17 1  
    22   19   20 1  
    23   21   23 1  
    24   31   21 1  
    25   21   32 1  
    26   22   24 1  
    27   22   28 1  
    28   22   31 1  
    29   23   25 1  
    30   23   26 1  
    31   24   30 1  
    32   26   27 1  
    33   26   28 1  
    34   28   29 1  
    35    1   33 1  
    36    2   34 1  
    37    3   35 1  
    38    4   36 1  
    39    5   37 1  
    40    6   38 1  
    41    7   39 1  
    42    8   40 1  
    43    8   41 1  
    44   10   42 1  
    45   12   43 1  
    46   12   44 1  
    47   13   45 1  
    48   14   46 1  
    49   14   47 1  
    50   15   48 1  
    51   15   49 1  
    52   16   50 1  
    53   16   51 1  
    54   17   52 1  
    55   18   53 1  
    56   19   54 1  
    57   20   55 1  
    58   21   56 1  
    59   22   57 1  
    60   23   58 1  
    61   24   59 1  
    62   24   60 1  
    63   25   61 1  
    64   26   62 1  
    65   27   63 1  
    66   28   64 1  
    67   29   65 1  
    68   30   66 1  
@<TRIPOS>SUBSTRUCTURE
     1 7K2         1

