5m77_ligand
  -I-interpret- 

 66 68  0  0  0  0  0  0  0  0999 V2000
    4.1050  -32.8090   -4.9920 O   0  0  0  0  0
    3.1530  -32.1040   -5.8390 C   0  0  0  0  0
    2.3730  -31.1100   -4.9400 C   0  0  0  0  0
    1.6350  -31.7790   -3.9550 O   0  0  0  0  0
    3.3610  -30.1910   -4.2770 C   0  0  0  0  0
    2.6360  -29.0590   -3.6700 O   0  0  0  0  0
    4.3270  -29.5190   -5.2910 C   0  0  0  0  0
    5.5350  -28.7510   -4.6750 C   0  0  0  0  0
    4.9070  -30.4330   -6.2410 O   0  0  0  0  0
    3.9720  -31.3180   -6.8730 C   0  0  0  0  0
    2.8070  -30.5370   -8.0150 S   0  0  0  0  0
    3.9140  -29.9730   -9.3010 C   0  0  0  0  0
    4.0300  -30.8600  -10.5100 C   0  0  0  0  0
    2.7040  -30.7720  -11.3280 C   0  0  0  0  0
    2.7550  -31.6060  -12.5670 N   0  3  0  0  0
    3.9310  -31.2680  -13.4210 C   0  0  0  0  0
    5.2240  -31.3210  -12.6600 C   0  0  0  0  0
    6.2690  -30.8730  -13.5740 O   0  0  0  0  0
    5.1890  -30.4490  -11.4330 C   0  0  0  0  0
    6.4000  -30.5170  -10.7320 O   0  0  0  0  0
    7.3300  -28.9880   -2.5960 C   0  0  0  0  0
    5.6520  -29.2370   -0.8570 C   0  0  0  0  0
    8.3410  -29.7600   -1.7520 C   0  0  0  0  0
    4.7210  -28.3640   -0.0170 C   0  0  0  0  0
    9.1080  -28.7720   -0.9700 O   0  0  0  0  0
    7.6300  -30.7880   -0.8440 C   0  0  0  0  0
    8.6370  -31.3360   -0.0230 O   0  0  0  0  0
    6.5750  -30.0910    0.0280 C   0  0  0  0  0
    5.7920  -31.0080    0.8080 O   0  0  0  0  0
    5.4690  -27.4640    0.8450 O   0  0  0  0  0
    6.3840  -28.3400   -1.7290 O   0  0  0  0  0
    6.5410  -29.9870   -3.8650 S   0  0  0  0  0
    3.6288  -33.3146   -4.3293 H   0  0  0  0  0
    2.4587  -32.7828   -6.3343 H   0  0  0  0  0
    1.6746  -30.5506   -5.5624 H   0  0  0  0  0
    1.0027  -32.3670   -4.3746 H   0  0  0  0  0
    3.9111  -30.8058   -3.5646 H   0  0  0  0  0
    2.0100  -29.3916   -3.0226 H   0  0  0  0  0
    3.6451  -28.8146   -5.7674 H   0  0  0  0  0
    5.2014  -27.9891   -3.9705 H   0  0  0  0  0
    6.1002  -28.2221   -5.4425 H   0  0  0  0  0
    4.6135  -31.9734   -7.4621 H   0  0  0  0  0
    4.9073  -29.9351   -8.8538 H   0  0  0  0  0
    3.5114  -29.0243   -9.6559 H   0  0  0  0  0
    4.2218  -31.8724  -10.1547 H   0  0  0  0  0
    2.5529  -29.7333  -11.6220 H   0  0  0  0  0
    1.8917  -31.1409  -10.7017 H   0  0  0  0  0
    1.9077  -31.4278  -13.1063 H   0  0  0  0  0
    2.8332  -32.5844  -12.2896 H   0  0  0  0  0
    3.7985  -30.2513  -13.7909 H   0  0  0  0  0
    3.9838  -31.9993  -14.2275 H   0  0  0  0  0
    5.4093  -32.3362  -12.3091 H   0  0  0  0  0
    7.1165  -30.8923  -13.1234 H   0  0  0  0  0
    5.0352  -29.4210  -11.7612 H   0  0  0  0  0
    7.1196  -30.2595  -11.3129 H   0  0  0  0  0
    7.8720  -28.2267   -3.1570 H   0  0  0  0  0
    5.0894  -29.9572   -1.4511 H   0  0  0  0  0
    9.0175  -30.3327   -2.3864 H   0  0  0  0  0
    4.1100  -29.0139    0.6094 H   0  0  0  0  0
    4.1069  -27.7663   -0.6906 H   0  0  0  0  0
    9.7548  -29.2281   -0.4266 H   0  0  0  0  0
    7.1205  -31.5516   -1.4317 H   0  0  0  0  0
    8.2488  -31.9866    0.5666 H   0  0  0  0  0
    7.1144  -29.4594    0.7339 H   0  0  0  0  0
    6.3746  -31.5373    1.3576 H   0  0  0  0  0
    4.8567  -26.9312    1.3577 H   0  0  0  0  0
  2  1  1  0  0  0
  3  2  1  0  0  0
 10  2  1  0  0  0
  3  4  1  0  0  0
  5  3  1  0  0  0
  5  6  1  0  0  0
  7  5  1  0  0  0
  8  7  1  0  0  0
  7  9  1  0  0  0
 32  8  1  0  0  0
  9 10  1  0  0  0
 10 11  1  0  0  0
 11 12  1  0  0  0
 12 13  1  0  0  0
 13 14  1  0  0  0
 13 19  1  0  0  0
 14 15  1  0  0  0
 15 16  1  0  0  0
 17 16  1  0  0  0
 17 18  1  0  0  0
 19 17  1  0  0  0
 19 20  1  0  0  0
 21 23  1  0  0  0
 31 21  1  0  0  0
 21 32  1  0  0  0
 22 24  1  0  0  0
 22 28  1  0  0  0
 22 31  1  0  0  0
 23 25  1  0  0  0
 23 26  1  0  0  0
 24 30  1  0  0  0
 26 27  1  0  0  0
 26 28  1  0  0  0
 28 29  1  0  0  0
  1 33  1  0  0  0
  2 34  1  0  0  0
  3 35  1  0  0  0
  4 36  1  0  0  0
  5 37  1  0  0  0
  6 38  1  0  0  0
  7 39  1  0  0  0
  8 40  1  0  0  0
  8 41  1  0  0  0
 10 42  1  0  0  0
 12 43  1  0  0  0
 12 44  1  0  0  0
 13 45  1  0  0  0
 14 46  1  0  0  0
 14 47  1  0  0  0
 15 48  1  0  0  0
 15 49  1  0  0  0
 16 50  1  0  0  0
 16 51  1  0  0  0
 17 52  1  0  0  0
 18 53  1  0  0  0
 19 54  1  0  0  0
 20 55  1  0  0  0
 21 56  1  0  0  0
 22 57  1  0  0  0
 23 58  1  0  0  0
 24 59  1  0  0  0
 24 60  1  0  0  0
 25 61  1  0  0  0
 26 62  1  0  0  0
 27 63  1  0  0  0
 28 64  1  0  0  0
 29 65  1  0  0  0
 30 66  1  0  0  0
M  END
$$$$
