### 
### Created by X-TOOL on Fri Nov 18 12:20:50 2016
### 

@<TRIPOS>MOLECULE
1a4k_ligand
   53    56     1     0     0
SMALL
GAST_HUCK


@<TRIPOS>ATOM
      1 C22        15.6040    7.0570   -2.2840 C.3       1 FRA         0.0309
      2 C1         15.9760    5.7400   -1.5940 C.2       1 FRA         0.1972
      3 O3         15.4720    4.6940   -1.9840 O.2       1 FRA        -0.3869
      4 N1         16.8250    5.6200   -0.5830 N.am      1 FRA        -0.2416
      5 C2         17.8010    6.4300    0.1030 C.ar      1 FRA         0.0536
      6 C7         17.4160    7.6830    0.6260 C.ar      1 FRA        -0.0513
      7 C6         18.3390    8.4880    1.2940 C.ar      1 FRA        -0.0478
      8 C5         19.6990    8.0850    1.4790 C.ar      1 FRA         0.0813
      9 C4         20.0900    6.8050    0.9420 C.ar      1 FRA        -0.0478
     10 C3         19.1510    5.9910    0.2640 C.ar      1 FRA        -0.0513
     11 N5         20.6510    9.0020    2.2090 N.am      1 FRA        -0.1411
     12 C11        20.3460    9.7660    3.3110 C.2       1 FRA         0.2338
     13 C10        21.5050   10.6030    3.7940 C.3       1 FRA         0.0841
     14 C9         22.6620   10.2210    2.8080 C.3       1 FRA         0.1047
     15 C8         21.9530    9.2230    1.8830 C.2       1 FRA         0.2360
     16 O11        19.2670    9.8250    3.8880 O.2       1 FRA        -0.3767
     17 O8         22.5660    8.7090    0.9450 O.2       1 FRA        -0.3766
     18 C12        21.3110   12.2290    3.7910 C.3       1 FRA        -0.0178
     19 C17        21.0230   12.7550    2.2910 C.3       1 FRA        -0.0452
     20 C16        22.2250   12.3000    1.3290 C.3       1 FRA        -0.0240
     21 C14        23.7240   12.4530    3.4150 C.3       1 FRA        -0.0240
     22 C13        22.6700   12.8440    4.2460 C.3       1 FRA        -0.0452
     23 C15        23.3440   11.4890    2.1610 C.3       1 FRA         0.0777
     24 N15        24.4370   10.9940    1.2860 N.am      1 FRA        -0.2538
     25 C18        25.7120   10.8320    1.5630 C.2       1 FRA         0.3218
     26 O18        26.2400   11.0850    2.6430 O.2       1 FRA        -0.3775
     27 O19        26.3270   10.3200    0.4320 O.3       1 FRA        -0.2492
     28 C19        27.7520   10.0260    0.4470 C.3       1 FRA         0.1295
     29 C20        28.2080    9.2280   -0.7690 C.2       1 FRA         0.0652
     30 O20        29.1480    8.4040   -0.6340 O.co2     1 FRA        -0.5663
     31 O21        27.6260    9.4150   -1.8690 O.co2     1 FRA        -0.5663
     32 H1         14.8797    6.8580   -3.0876 H         1 FRA         0.0471
     33 H2         16.5082    7.5156   -2.7107 H         1 FRA         0.0471
     34 H3         15.1570    7.7425   -1.5490 H         1 FRA         0.0471
     35 H4         16.7740    4.7058   -0.1809 H         1 FRA         0.2214
     36 H5         16.3936    8.0231    0.5075 H         1 FRA         0.0474
     37 H6         18.0163    9.4465    1.6841 H         1 FRA         0.0487
     38 H7         21.1121    6.4631    1.0586 H         1 FRA         0.0487
     39 H8         19.4575    5.0307   -0.1346 H         1 FRA         0.0474
     40 H9         21.7579   10.2988    4.8204 H         1 FRA         0.0579
     41 H10        23.4539    9.6875    3.3541 H         1 FRA         0.0601
     42 H11        20.4943   12.5234    4.4665 H         1 FRA         0.0330
     43 H12        20.0780   12.3260    1.9264 H         1 FRA         0.0270
     44 H13        20.9503   13.8526    2.2942 H         1 FRA         0.0270
     45 H14        21.8262   11.6528    0.5340 H         1 FRA         0.0292
     46 H15        22.6852   13.1921    0.8792 H         1 FRA         0.0292
     47 H16        24.1835   13.3654    3.0072 H         1 FRA         0.0292
     48 H17        24.4581   11.9188    4.0361 H         1 FRA         0.0292
     49 H18        22.8846   12.5119    5.2725 H         1 FRA         0.0270
     50 H19        22.5887   13.9408    4.2249 H         1 FRA         0.0270
     51 H20        24.1650   10.7495    0.3553 H         1 FRA         0.1875
     52 H21        27.9807    9.4457    1.3530 H         1 FRA         0.0782
     53 H22        28.3058   10.9761    0.4706 H         1 FRA         0.0782
@<TRIPOS>BOND
     1    1    2 1  
     2    2    4 am 
     3    2    3 2  
     4    4    5 1  
     5    5   10 ar 
     6    5    6 ar 
     7    6    7 ar 
     8    7    8 ar 
     9    8   11 1  
    10    8    9 ar 
    11    9   10 ar 
    12   11   15 am 
    13   11   12 am 
    14   12   16 2  
    15   12   13 1  
    16   13   18 1  
    17   13   14 1  
    18   14   23 1  
    19   14   15 1  
    20   15   17 2  
    21   23   21 1  
    22   23   24 1  
    23   23   20 1  
    24   20   19 1  
    25   19   18 1  
    26   18   22 1  
    27   22   21 1  
    28   24   25 am 
    29   25   27 1  
    30   25   26 2  
    31   27   28 1  
    32   28   29 1  
    33   29   31 ar 
    34   29   30 ar 
    35    1   32 1  
    36    1   33 1  
    37    1   34 1  
    38    4   35 1  
    39    6   36 1  
    40    7   37 1  
    41    9   38 1  
    42   10   39 1  
    43   13   40 1  
    44   14   41 1  
    45   18   42 1  
    46   19   43 1  
    47   19   44 1  
    48   20   45 1  
    49   20   46 1  
    50   21   47 1  
    51   21   48 1  
    52   22   49 1  
    53   22   50 1  
    54   24   51 1  
    55   28   52 1  
    56   28   53 1  
@<TRIPOS>SUBSTRUCTURE
     1 FRA         1

