3lgs_ligand
  -I-interpret- 

 28 30  0  0  0  0  0  0  0  0999 V2000
   21.5800   -7.9660    8.5140 C   0  0  0  0  0
   22.0840   -9.2510    8.8970 O   0  0  0  0  0
   21.4010   -7.1640    9.7920 C   0  0  0  0  0
   20.0400   -6.7200    9.9090 O   0  0  0  0  0
   21.7490   -8.1080   10.9350 C   0  0  0  0  0
   20.5550   -8.4860   11.6440 O   0  0  0  0  0
   22.3580   -9.3410   10.3010 C   0  0  0  0  0
   23.8220   -9.4950   10.5860 N   0  0  0  0  0
   24.6880  -10.2080    9.8320 C   0  0  0  0  0
   25.9410  -10.1740   10.3520 N   0  0  0  0  0
   25.9020   -9.4290   11.4660 C   0  0  0  0  0
   26.8840   -8.9870   12.4920 C   0  0  0  0  0
   28.2000   -9.3300   12.4340 N   0  0  0  0  0
   26.4270   -8.2060   13.4920 N   0  0  0  0  0
   25.1400   -7.8430   13.5600 C   0  0  0  0  0
   24.2020   -8.2120   12.6700 N   0  0  0  0  0
   24.5060   -8.9900   11.6130 C   0  0  0  0  0
   20.6331   -8.0643    7.9831 H   0  0  0  0  0
   22.2718   -7.4652    7.8367 H   0  0  0  0  0
   22.0360   -6.2781    9.8016 H   0  0  0  0  0
   19.8347   -6.1265    9.1830 H   0  0  0  0  0
   22.4317   -7.6325   11.6392 H   0  0  0  0  0
   20.1643   -7.7078   12.0483 H   0  0  0  0  0
   21.9139  -10.2388   10.7309 H   0  0  0  0  0
   24.4147  -10.7423    8.9221 H   0  0  0  0  0
   28.5427   -9.9096   11.6678 H   0  0  0  0  0
   28.8434   -9.0074   13.1567 H   0  0  0  0  0
   24.8328   -7.2073   14.3904 H   0  0  0  0  0
  1  2  1  0  0  0
  1  3  1  0  0  0
  2  7  1  0  0  0
  3  4  1  0  0  0
  3  5  1  0  0  0
  5  6  1  0  0  0
  5  7  1  0  0  0
  7  8  1  0  0  0
  8  9  4  0  0  0
  8 17  4  0  0  0
  9 10  4  0  0  0
 10 11  4  0  0  0
 11 12  4  0  0  0
 11 17  4  0  0  0
 12 13  1  0  0  0
 12 14  4  0  0  0
 14 15  4  0  0  0
 15 16  4  0  0  0
 16 17  4  0  0  0
  1 18  1  0  0  0
  1 19  1  0  0  0
  3 20  1  0  0  0
  4 21  1  0  0  0
  5 22  1  0  0  0
  6 23  1  0  0  0
  7 24  1  0  0  0
  9 25  1  0  0  0
 13 26  1  0  0  0
 13 27  1  0  0  0
 15 28  1  0  0  0
M  END
$$$$
