### 
### Created by X-TOOL on Mon Sep 10 21:13:04 2018
### 

@<TRIPOS>MOLECULE
3lgs_ligand
   28    30     1     0     0
SMALL
GAST_HUCK


@<TRIPOS>ATOM
      1 C4'        21.5800   -7.9660    8.5140 C.3       1 SAH         0.0797
      2 O4'        22.0840   -9.2510    8.8970 O.3       1 SAH        -0.3424
      3 C3'        21.4010   -7.1640    9.7920 C.3       1 SAH         0.1096
      4 O3'        20.0400   -6.7200    9.9090 O.3       1 SAH        -0.3868
      5 C2'        21.7490   -8.1080   10.9350 C.3       1 SAH         0.1381
      6 O2'        20.5550   -8.4860   11.6440 O.3       1 SAH        -0.3836
      7 C1'        22.3580   -9.3410   10.3010 C.3       1 SAH         0.2006
      8 N9         23.8220   -9.4950   10.5860 N.pl3     1 SAH        -0.1919
      9 C8         24.6880  -10.2080    9.8320 C.2       1 SAH         0.1123
     10 N7         25.9410  -10.1740   10.3520 N.2       1 SAH        -0.2958
     11 C5         25.9020   -9.4290   11.4660 C.ar      1 SAH         0.1045
     12 C6         26.8840   -8.9870   12.4920 C.ar      1 SAH         0.1298
     13 N6         28.2000   -9.3300   12.4340 N.pl3     1 SAH        -0.3152
     14 N1         26.4270   -8.2060   13.4920 N.ar      1 SAH        -0.2698
     15 C2         25.1400   -7.8430   13.5600 C.ar      1 SAH         0.0533
     16 N3         24.2020   -8.2120   12.6700 N.ar      1 SAH        -0.2714
     17 C4         24.5060   -8.9900   11.6130 C.ar      1 SAH         0.1613
     18 H1         20.6147   -8.0765    7.9983 H         1 SAH         0.0588
     19 H2         22.2958   -7.4619    7.8481 H         1 SAH         0.0588
     20 H3         22.0739   -6.2939    9.7961 H         1 SAH         0.0644
     21 H4         19.4627   -7.4742    9.9300 H         1 SAH         0.2100
     22 H5         22.4617   -7.6323   11.6248 H         1 SAH         0.0676
     23 H6         19.9590   -8.9236   11.0476 H         1 SAH         0.2101
     24 H7         21.8495  -10.2291   10.7044 H         1 SAH         0.0996
     25 H8         24.4150  -10.7418    8.9229 H         1 SAH         0.1349
     26 H9         28.8497   -9.0043   13.1638 H         1 SAH         0.1820
     27 H10        28.5461   -9.9153   11.6603 H         1 SAH         0.1820
     28 H11        24.8345   -7.2108   14.3859 H         1 SAH         0.0996
@<TRIPOS>BOND
     1    1    2 1  
     2    1    3 1  
     3    2    7 1  
     4    3    4 1  
     5    3    5 1  
     6    5    6 1  
     7    5    7 1  
     8    7    8 1  
     9    8    9 1  
    10    8   17 1  
    11    9   10 2  
    12   10   11 1  
    13   11   12 ar 
    14   11   17 ar 
    15   12   13 1  
    16   12   14 ar 
    17   14   15 ar 
    18   15   16 ar 
    19   16   17 ar 
    20    1   18 1  
    21    1   19 1  
    22    3   20 1  
    23    4   21 1  
    24    5   22 1  
    25    6   23 1  
    26    7   24 1  
    27    9   25 1  
    28   13   26 1  
    29   13   27 1  
    30   15   28 1  
@<TRIPOS>SUBSTRUCTURE
     1 SAH         1

