### 
### Created by X-TOOL on Mon Sep 10 21:12:45 2018
### 

@<TRIPOS>MOLECULE
1rpf_ligand
   33    34     1     0     0
SMALL
GAST_HUCK


@<TRIPOS>ATOM
      1 P         -13.0070   47.5780    6.6780 P.3       1 C3P         0.2013
      2 O1P       -12.4950   47.7550    8.0660 O.co2     1 C3P        -0.5537
      3 O2P       -11.9090   46.9660    5.8450 O.co2     1 C3P        -0.5537
      4 O3P       -14.2920   46.8430    6.5130 O.co2     1 C3P        -0.5537
      5 O5'       -14.6720   52.9510    6.5550 O.3       1 C3P        -0.3924
      6 C5'       -13.6240   52.1230    7.0340 C.3       1 C3P         0.0734
      7 C4'       -12.9400   51.4380    5.8230 C.3       1 C3P         0.1183
      8 O4'       -11.8810   52.1230    5.0710 O.3       1 C3P        -0.3353
      9 C3'       -12.3850   50.0760    6.1140 C.3       1 C3P         0.1485
     10 O3'       -13.3000   49.0350    6.0620 O.3       1 C3P        -0.2675
     11 C2'       -11.1980   49.9110    5.1690 C.3       1 C3P         0.1446
     12 O2'       -11.3470   48.7790    4.2860 O.3       1 C3P        -0.3831
     13 C1'       -10.7330   51.3090    4.9110 C.3       1 C3P         0.2112
     14 N1         -9.6850   51.8400    5.7350 N.am      1 C3P        -0.1467
     15 C2         -8.4410   51.3980    5.5230 C.2       1 C3P         0.3488
     16 N3         -7.4350   51.9610    6.2110 N.am      1 C3P        -0.1924
     17 C4         -7.6660   52.8980    7.1280 C.2       1 C3P         0.0853
     18 C5         -8.9710   53.3300    7.3650 C.2       1 C3P         0.0019
     19 C6         -9.9420   52.8240    6.6430 C.2       1 C3P         0.0739
     20 O2         -8.2870   50.5250    4.7000 O.2       1 C3P        -0.3777
     21 N4         -6.7240   53.4960    7.8430 N.2       1 C3P        -0.4291
     22 H1        -15.0988   53.3764    7.2894 H         1 C3P         0.2095
     23 H2        -14.0355   51.3577    7.7085 H         1 C3P         0.0584
     24 H3        -12.8885   52.7339    7.5779 H         1 C3P         0.0584
     25 H4        -13.7626   51.2975    5.1064 H         1 C3P         0.0650
     26 H5        -11.9982   50.0872    7.1437 H         1 C3P         0.0704
     27 H6        -10.3837   49.5361    5.8064 H         1 C3P         0.0681
     28 H7        -11.4236   47.9847    4.8014 H         1 C3P         0.2102
     29 H8        -10.3838   51.3588    3.8691 H         1 C3P         0.1013
     30 H9         -6.4949   51.6712    6.0314 H         1 C3P         0.2412
     31 H10        -9.1794   54.0724    8.1340 H         1 C3P         0.0330
     32 H11       -10.9592   53.1919    6.7695 H         1 C3P         0.1288
     33 H12        -6.9754   54.1983    8.5210 H         1 C3P         0.0340
@<TRIPOS>BOND
     1    1    2 ar 
     2    1    3 ar 
     3    1    4 ar 
     4   10    1 1  
     5    6    5 1  
     6    7    6 1  
     7    7    8 1  
     8    9    7 1  
     9    8   13 1  
    10    9   10 1  
    11    9   11 1  
    12   11   12 1  
    13   11   13 1  
    14   13   14 1  
    15   14   15 am 
    16   14   19 1  
    17   15   16 am 
    18   15   20 2  
    19   16   17 1  
    20   17   18 1  
    21   17   21 2  
    22   18   19 2  
    23    5   22 1  
    24    6   23 1  
    25    6   24 1  
    26    7   25 1  
    27    9   26 1  
    28   11   27 1  
    29   12   28 1  
    30   13   29 1  
    31   16   30 1  
    32   18   31 1  
    33   19   32 1  
    34   21   33 1  
@<TRIPOS>SUBSTRUCTURE
     1 C3P         1

