1rpf_ligand
  -I-interpret- 

 35 36  0  0  0  0  0  0  0  0999 V2000
  -13.0070   47.5780    6.6780 P   0  0  0  0  0
  -12.4950   47.7550    8.0660 O   0  0  0  0  0
  -11.9090   46.9660    5.8450 O   0  0  0  0  0
  -14.2920   46.8430    6.5130 O   0  0  0  0  0
  -14.6720   52.9510    6.5550 O   0  0  0  0  0
  -13.6240   52.1230    7.0340 C   0  0  0  0  0
  -12.9400   51.4380    5.8230 C   0  0  0  0  0
  -11.8810   52.1230    5.0710 O   0  0  0  0  0
  -12.3850   50.0760    6.1140 C   0  0  0  0  0
  -13.3000   49.0350    6.0620 O   0  0  0  0  0
  -11.1980   49.9110    5.1690 C   0  0  0  0  0
  -11.3470   48.7790    4.2860 O   0  0  0  0  0
  -10.7330   51.3090    4.9110 C   0  0  0  0  0
   -9.6850   51.8400    5.7350 N   0  0  0  0  0
   -8.4410   51.3980    5.5230 C   0  0  0  0  0
   -7.4350   51.9610    6.2110 N   0  0  0  0  0
   -7.6660   52.8980    7.1280 C   0  0  0  0  0
   -8.9710   53.3300    7.3650 C   0  0  0  0  0
   -9.9420   52.8240    6.6430 C   0  0  0  0  0
   -8.2870   50.5250    4.7000 O   0  0  0  0  0
   -6.7240   53.4960    7.8430 N   0  0  0  0  0
  -11.6670   48.2401    8.0410 H   0  0  0  0  0
  -11.0970   47.4617    5.9738 H   0  0  0  0  0
  -15.1033   53.3809    7.2971 H   0  0  0  0  0
  -14.0274   51.3673    7.7081 H   0  0  0  0  0
  -12.8965   52.7242    7.5793 H   0  0  0  0  0
  -13.8278   51.4382    5.1907 H   0  0  0  0  0
  -12.0758   50.0150    7.1574 H   0  0  0  0  0
  -10.2381   49.4758    5.4469 H   0  0  0  0  0
  -10.5786   48.7176    3.7138 H   0  0  0  0  0
  -10.2817   51.2974    3.9189 H   0  0  0  0  0
   -6.4761   51.6654    6.0278 H   0  0  0  0  0
   -9.1795   54.0731    8.1347 H   0  0  0  0  0
  -10.9601   53.1922    6.7696 H   0  0  0  0  0
   -5.7446   53.2456    7.7073 H   0  0  0  0  0
  1  2  1  0  0  0
  1  3  1  0  0  0
  1  4  2  0  0  0
 10  1  1  0  0  0
  6  5  1  0  0  0
  7  6  1  0  0  0
  7  8  1  0  0  0
  9  7  1  0  0  0
  8 13  1  0  0  0
  9 10  1  0  0  0
  9 11  1  0  0  0
 11 12  1  0  0  0
 11 13  1  0  0  0
 13 14  1  0  0  0
 14 15  1  0  0  0
 14 19  1  0  0  0
 15 16  1  0  0  0
 15 20  2  0  0  0
 16 17  1  0  0  0
 17 18  1  0  0  0
 17 21  2  0  0  0
 18 19  2  0  0  0
  2 22  1  0  0  0
  3 23  1  0  0  0
  5 24  1  0  0  0
  6 25  1  0  0  0
  6 26  1  0  0  0
  7 27  1  0  0  0
  9 28  1  0  0  0
 11 29  1  0  0  0
 12 30  1  0  0  0
 13 31  1  0  0  0
 16 32  1  0  0  0
 18 33  1  0  0  0
 19 34  1  0  0  0
 21 35  1  0  0  0
M  END
$$$$
