5gmh_ligand
  -I-interpret- 

 45 47  0  0  0  0  0  0  0  0999 V2000
  -14.5760  -30.8540  -10.7840 O   0  0  0  0  0
  -15.8700  -30.3480  -10.7320 C   0  0  0  0  0
  -15.9010  -29.9930   -9.2700 C   0  0  0  0  0
  -16.8260  -31.5300  -10.9130 C   0  0  0  0  0
  -16.1440  -29.2570  -11.8360 C   0  0  0  0  0
  -15.1220  -28.2080  -11.8270 N   0  0  0  0  0
  -15.1590  -27.2380  -10.9080 C   0  0  0  0  0
  -16.2740  -26.9340   -9.9720 C   0  0  0  0  0
  -17.3130  -26.1730  -10.5800 O   0  0  0  0  0
  -17.5530  -26.0230  -11.9550 C   0  0  0  0  0
  -18.9050  -25.5470  -12.4200 C   0  0  0  0  0
  -14.1010  -26.4630  -11.0330 N   0  0  0  0  0
  -13.3000  -26.9950  -11.9960 C   0  0  0  0  0
  -12.0270  -26.5680  -12.4860 C   0  0  0  0  0
  -11.4740  -25.4480  -11.8540 N   0  0  0  0  0
  -13.9340  -28.1010  -12.5370 C   0  0  0  0  0
  -13.2620  -28.7940  -13.6310 C   0  0  0  0  0
  -13.8270  -29.9490  -14.2230 C   0  0  0  0  0
  -13.1750  -30.5800  -15.2770 C   0  0  0  0  0
  -11.9470  -30.1170  -15.7110 C   0  0  0  0  0
  -11.3560  -28.9720  -15.1370 C   0  0  0  0  0
  -12.0450  -28.3090  -14.0830 C   0  0  0  0  0
  -11.4350  -27.1650  -13.5210 N   0  0  0  0  0
  -14.4627  -31.5114  -10.0937 H   0  0  0  0  0
  -15.1496  -29.2300   -9.0667 H   0  0  0  0  0
  -16.8883  -29.6105   -9.0112 H   0  0  0  0  0
  -15.6875  -30.8822   -8.6769 H   0  0  0  0  0
  -17.8547  -31.1805  -10.8244 H   0  0  0  0  0
  -16.6743  -31.9708  -11.8983 H   0  0  0  0  0
  -16.6273  -32.2773  -10.1447 H   0  0  0  0  0
  -17.1104  -28.7964  -11.6311 H   0  0  0  0  0
  -16.1277  -29.7438  -12.8111 H   0  0  0  0  0
  -15.8679  -26.3464   -9.1487 H   0  0  0  0  0
  -16.7021  -27.8812   -9.6440 H   0  0  0  0  0
  -17.4553  -27.0279  -12.3658 H   0  0  0  0  0
  -16.8590  -25.2459  -12.2755 H   0  0  0  0  0
  -19.6701  -26.2479  -12.0861 H   0  0  0  0  0
  -19.1057  -24.5611  -12.0006 H   0  0  0  0  0
  -18.9137  -25.4889  -13.5084 H   0  0  0  0  0
  -11.9777  -24.9907  -11.0940 H   0  0  0  0  0
  -10.5674  -25.0892  -12.1535 H   0  0  0  0  0
  -14.7731  -30.3439  -13.8528 H   0  0  0  0  0
  -13.6335  -31.4418  -15.7620 H   0  0  0  0  0
  -11.4268  -30.6454  -16.5099 H   0  0  0  0  0
  -10.3938  -28.6035  -15.4926 H   0  0  0  0  0
  1  2  1  0  0  0
  2  3  1  0  0  0
  2  4  1  0  0  0
  2  5  1  0  0  0
  5  6  1  0  0  0
  6  7  4  0  0  0
  6 16  4  0  0  0
  7  8  1  0  0  0
  7 12  4  0  0  0
  8  9  1  0  0  0
  9 10  1  0  0  0
 10 11  1  0  0  0
 12 13  4  0  0  0
 13 14  4  0  0  0
 13 16  4  0  0  0
 14 15  1  0  0  0
 14 23  4  0  0  0
 16 17  4  0  0  0
 17 18  4  0  0  0
 17 22  4  0  0  0
 18 19  4  0  0  0
 19 20  4  0  0  0
 20 21  4  0  0  0
 21 22  4  0  0  0
 22 23  4  0  0  0
  1 24  1  0  0  0
  3 25  1  0  0  0
  3 26  1  0  0  0
  3 27  1  0  0  0
  4 28  1  0  0  0
  4 29  1  0  0  0
  4 30  1  0  0  0
  5 31  1  0  0  0
  5 32  1  0  0  0
  8 33  1  0  0  0
  8 34  1  0  0  0
 10 35  1  0  0  0
 10 36  1  0  0  0
 11 37  1  0  0  0
 11 38  1  0  0  0
 11 39  1  0  0  0
 15 40  1  0  0  0
 15 41  1  0  0  0
 18 42  1  0  0  0
 19 43  1  0  0  0
 20 44  1  0  0  0
 21 45  1  0  0  0
M  END
$$$$
