### 
### Created by X-TOOL on Mon Sep 10 21:13:28 2018
### 

@<TRIPOS>MOLECULE
5gmh_ligand
   45    47     1     0     0
SMALL
GAST_HUCK


@<TRIPOS>ATOM
      1 O1        -14.5760  -30.8540  -10.7840 O.3       1 RX8        -0.3864
      2 C10       -15.8700  -30.3480  -10.7320 C.3       1 RX8         0.0877
      3 C11       -15.9010  -29.9930   -9.2700 C.3       1 RX8        -0.0337
      4 C12       -16.8260  -31.5300  -10.9130 C.3       1 RX8        -0.0337
      5 C9        -16.1440  -29.2570  -11.8360 C.3       1 RX8         0.0884
      6 N3        -15.1220  -28.2080  -11.8270 N.pl3     1 RX8        -0.2220
      7 C5        -15.1590  -27.2380  -10.9080 C.2       1 RX8         0.1517
      8 C6        -16.2740  -26.9340   -9.9720 C.3       1 RX8         0.1285
      9 O         -17.3130  -26.1730  -10.5800 O.3       1 RX8        -0.3589
     10 C7        -17.5530  -26.0230  -11.9550 C.3       1 RX8         0.0485
     11 C8        -18.9050  -25.5470  -12.4200 C.3       1 RX8        -0.0413
     12 N2        -14.1010  -26.4630  -11.0330 N.2       1 RX8        -0.3096
     13 C4        -13.3000  -26.9950  -11.9960 C.ar      1 RX8         0.0748
     14 C         -12.0270  -26.5680  -12.4860 C.ar      1 RX8         0.1060
     15 N         -11.4740  -25.4480  -11.8540 N.pl3     1 RX8        -0.3203
     16 C3        -13.9340  -28.1010  -12.5370 C.ar      1 RX8         0.1040
     17 C2        -13.2620  -28.7940  -13.6310 C.ar      1 RX8         0.0174
     18 C13       -13.8270  -29.9490  -14.2230 C.ar      1 RX8        -0.0565
     19 C14       -13.1750  -30.5800  -15.2770 C.ar      1 RX8        -0.0663
     20 C15       -11.9470  -30.1170  -15.7110 C.ar      1 RX8        -0.0669
     21 C16       -11.3560  -28.9720  -15.1370 C.ar      1 RX8        -0.0559
     22 C1        -12.0450  -28.3090  -14.0830 C.ar      1 RX8         0.0126
     23 N1        -11.4350  -27.1650  -13.5210 N.ar      1 RX8        -0.3109
     24 H1        -14.3827  -31.1358  -11.6705 H         1 RX8         0.2103
     25 H2        -16.8805  -29.5602   -9.0185 H         1 RX8         0.0258
     26 H3        -15.1099  -29.2600   -9.0538 H         1 RX8         0.0258
     27 H4        -15.7354  -30.8993   -8.6690 H         1 RX8         0.0258
     28 H5        -17.8648  -31.1701  -10.8778 H         1 RX8         0.0258
     29 H6        -16.6634  -32.2600  -10.1064 H         1 RX8         0.0258
     30 H7        -16.6368  -32.0092  -11.8849 H         1 RX8         0.0258
     31 H8        -17.1264  -28.7990  -11.6484 H         1 RX8         0.0641
     32 H9        -16.1480  -29.7421  -12.8232 H         1 RX8         0.0641
     33 H10       -15.8730  -26.3641   -9.1209 H         1 RX8         0.0824
     34 H11       -16.6983  -27.8825   -9.6109 H         1 RX8         0.0824
     35 H12       -17.3813  -27.0051  -12.4198 H         1 RX8         0.0560
     36 H13       -16.8119  -25.3036  -12.3335 H         1 RX8         0.0560
     37 H14       -18.9151  -25.4880  -13.5184 H         1 RX8         0.0252
     38 H15       -19.1087  -24.5520  -11.9975 H         1 RX8         0.0252
     39 H16       -19.6781  -26.2535  -12.0837 H         1 RX8         0.0252
     40 H17       -10.5585  -25.0857  -12.1565 H         1 RX8         0.1804
     41 H18       -11.9826  -24.9862  -11.0865 H         1 RX8         0.1804
     42 H19       -14.7679  -30.3417  -13.8548 H         1 RX8         0.0614
     43 H20       -13.6309  -31.4370  -15.7594 H         1 RX8         0.0573
     44 H21       -11.4296  -30.6425  -16.5055 H         1 RX8         0.0603
     45 H22       -10.3991  -28.6056  -15.4906 H         1 RX8         0.0575
@<TRIPOS>BOND
     1    1    2 1  
     2    2    3 1  
     3    2    4 1  
     4    2    5 1  
     5    5    6 1  
     6    6    7 1  
     7    6   16 1  
     8    7    8 1  
     9    7   12 2  
    10    8    9 1  
    11    9   10 1  
    12   10   11 1  
    13   12   13 1  
    14   13   14 ar 
    15   13   16 ar 
    16   14   15 1  
    17   14   23 ar 
    18   16   17 ar 
    19   17   18 ar 
    20   17   22 ar 
    21   18   19 ar 
    22   19   20 ar 
    23   20   21 ar 
    24   21   22 ar 
    25   22   23 ar 
    26    1   24 1  
    27    3   25 1  
    28    3   26 1  
    29    3   27 1  
    30    4   28 1  
    31    4   29 1  
    32    4   30 1  
    33    5   31 1  
    34    5   32 1  
    35    8   33 1  
    36    8   34 1  
    37   10   35 1  
    38   10   36 1  
    39   11   37 1  
    40   11   38 1  
    41   11   39 1  
    42   15   40 1  
    43   15   41 1  
    44   18   42 1  
    45   19   43 1  
    46   20   44 1  
    47   21   45 1  
@<TRIPOS>SUBSTRUCTURE
     1 RX8         1

