3c2r_ligand
  -I-interpret- 

 18 18  0  0  0  0  0  0  0  0999 V2000
  -21.9230  -14.2250   22.7120 O   0  0  0  0  0
  -23.4620  -14.5330   21.1630 O   0  0  0  0  0
  -21.1670  -16.8040   23.6570 C   0  0  0  0  0
  -20.4790  -17.0310   24.6760 O   0  0  0  0  0
  -20.6850  -16.5870   22.5250 O   0  0  0  0  0
  -22.9250  -14.8170   22.2550 C   0  0  0  0  0
  -23.2690  -17.8320   24.5850 C   0  0  0  0  0
  -22.6930  -16.8470   23.7880 C   0  0  0  0  0
  -23.5100  -15.9740   23.0700 C   0  0  0  0  0
  -24.8940  -16.1000   23.1500 C   0  0  0  0  0
  -25.4690  -17.0880   23.9460 C   0  0  0  0  0
  -24.6540  -17.9550   24.6660 C   0  0  0  0  0
  -21.6849  -14.6086   23.5592 H   0  0  0  0  0
  -21.0592  -17.1679   25.4285 H   0  0  0  0  0
  -22.6315  -18.5121   25.1499 H   0  0  0  0  0
  -25.5326  -15.4205   22.5856 H   0  0  0  0  0
  -26.5534  -17.1813   24.0044 H   0  0  0  0  0
  -25.0981  -18.7289   25.2921 H   0  0  0  0  0
  6  1  1  0  0  0
  6  2  2  0  0  0
  3  4  1  0  0  0
  3  5  2  0  0  0
  8  3  1  0  0  0
  9  6  1  0  0  0
  8  7  4  0  0  0
  7 12  4  0  0  0
  8  9  4  0  0  0
  9 10  4  0  0  0
 10 11  4  0  0  0
 11 12  4  0  0  0
  1 13  1  0  0  0
  4 14  1  0  0  0
  7 15  1  0  0  0
 10 16  1  0  0  0
 11 17  1  0  0  0
 12 18  1  0  0  0
M  END
$$$$
