### 
### Created by X-TOOL on Mon Sep 10 21:12:57 2018
### 

@<TRIPOS>MOLECULE
3c2r_ligand
   16    16     1     0     0
SMALL
GAST_HUCK


@<TRIPOS>ATOM
      1 O8        -21.9230  -14.2250   22.7120 O.co2     1 PHT        -0.5599
      2 O9        -23.4620  -14.5330   21.1630 O.co2     1 PHT        -0.5599
      3 C10       -21.1670  -16.8040   23.6570 C.2       1 PHT         0.0654
      4 O11       -20.4790  -17.0310   24.6760 O.co2     1 PHT        -0.5599
      5 O12       -20.6850  -16.5870   22.5250 O.co2     1 PHT        -0.5599
      6 C7        -22.9250  -14.8170   22.2550 C.2       1 PHT         0.0654
      7 C1        -23.2690  -17.8320   24.5850 C.ar      1 PHT        -0.0442
      8 C2        -22.6930  -16.8470   23.7880 C.ar      1 PHT         0.0241
      9 C3        -23.5100  -15.9740   23.0700 C.ar      1 PHT         0.0241
     10 C4        -24.8940  -16.1000   23.1500 C.ar      1 PHT        -0.0442
     11 C5        -25.4690  -17.0880   23.9460 C.ar      1 PHT        -0.0557
     12 C6        -24.6540  -17.9550   24.6660 C.ar      1 PHT        -0.0557
     13 H1        -22.6350  -18.5084   25.1468 H         1 PHT         0.0658
     14 H2        -25.5290  -15.4242   22.5887 H         1 PHT         0.0658
     15 H3        -26.5475  -17.1807   24.0040 H         1 PHT         0.0645
     16 H4        -25.0956  -18.7246   25.2887 H         1 PHT         0.0645
@<TRIPOS>BOND
     1    6    1 ar 
     2    6    2 ar 
     3    3    4 ar 
     4    3    5 ar 
     5    8    3 1  
     6    9    6 1  
     7    8    7 ar 
     8    7   12 ar 
     9    8    9 ar 
    10    9   10 ar 
    11   10   11 ar 
    12   11   12 ar 
    13    7   13 1  
    14   10   14 1  
    15   11   15 1  
    16   12   16 1  
@<TRIPOS>SUBSTRUCTURE
     1 PHT         1

