### 
### Created by X-TOOL on Mon Sep 10 21:13:18 2018
### 

@<TRIPOS>MOLECULE
4cwn_ligand
   43    46     1     0     0
SMALL
GAST_HUCK


@<TRIPOS>ATOM
      1 N1         -2.1820   11.8510   24.1340 N.pl3     1 6LV        -0.2474
      2 C2         -1.1030   11.2090   24.6520 C.2       1 6LV         0.3227
      3 N8          0.0870   11.2150   24.0040 N.2       1 6LV        -0.1216
      4 N9          0.8100   10.4470   24.9050 N.ar      1 6LV        -0.1779
      5 C4          0.0960   10.0490   25.9560 C.ar      1 6LV         0.2310
      6 N3         -1.1660   10.5400   25.8320 N.pl3     1 6LV        -0.1492
      7 C10         2.1010   10.0850   24.7630 C.ar      1 6LV         0.1348
      8 N11         2.6910    9.3310   25.7130 N.ar      1 6LV        -0.2617
      9 C12         1.9920    8.9160   26.8100 C.ar      1 6LV         0.0742
     10 C13         2.6110    8.1350   27.7810 C.ar      1 6LV        -0.0119
     11 C14         1.9060    7.7120   28.9070 C.ar      1 6LV        -0.0252
     12 C7          0.5620    8.0640   29.0590 C.ar      1 6LV        -0.0239
     13 C6         -0.0720    8.8540   28.0890 C.ar      1 6LV        -0.0094
     14 C5          0.6490    9.2760   26.9690 C.ar      1 6LV         0.0986
     15 C15         2.9150   10.5200   23.5730 C.3       1 6LV         0.0473
     16 C16         3.8760   11.6110   23.9770 C.ar      1 6LV        -0.0423
     17 C23         3.3790   12.7910   24.5230 C.ar      1 6LV        -0.0401
     18 C22         4.2360   13.8240   24.8990 C.ar      1 6LV         0.0765
     19 O24         3.6870   14.9690   25.4390 O.3       1 6LV        -0.3255
     20 C25         4.5100   16.0500   25.9040 C.3       1 6LV         0.0590
     21 C21         5.6120   13.6590   24.7170 C.ar      1 6LV        -0.0117
     22 C18         6.1110   12.4730   24.1700 C.ar      1 6LV         0.0765
     23 C17         5.2440   11.4370   23.7980 C.ar      1 6LV        -0.0401
     24 O19         7.4680   12.3540   24.0000 O.3       1 6LV        -0.3255
     25 C20         8.1200   11.1110   23.7330 C.3       1 6LV         0.0590
     26 H          -2.1025   12.3499   23.2364 H         1 6LV         0.2186
     27 H          -3.0798   11.8389   24.6387 H         1 6LV         0.2186
     28 H           3.6507    7.8529   27.6609 H         1 6LV         0.0846
     29 H           2.3991    7.1115   29.6628 H         1 6LV         0.0854
     30 H           0.0089    7.7259   29.9278 H         1 6LV         0.0727
     31 H          -1.1123    9.1348   28.2071 H         1 6LV         0.0949
     32 H           2.2419   10.8990   22.7899 H         1 6LV         0.0660
     33 H           3.4816    9.6606   23.1852 H         1 6LV         0.0660
     34 H           2.3098   12.9083   24.6578 H         1 6LV         0.0397
     35 H           3.8708   16.8564   26.2928 H         1 6LV         0.0577
     36 H           5.1175   16.4331   25.0708 H         1 6LV         0.0577
     37 H           5.1721   15.6887   26.7047 H         1 6LV         0.0577
     38 H           6.2939   14.4525   25.0006 H         1 6LV         0.0414
     39 H           5.6327   10.5163   23.3782 H         1 6LV         0.0397
     40 H           9.2031   11.2780   23.6383 H         1 6LV         0.0577
     41 H           7.7311   10.6869   22.7955 H         1 6LV         0.0577
     42 H           7.9279   10.4112   24.5596 H         1 6LV         0.0577
     43 H1         -1.9666   10.4319   26.4710 H         1 6LV         0.2600
@<TRIPOS>BOND
     1    1    2 1  
     2    2    3 2  
     3    2    6 1  
     4    3    4 1  
     5    4    5 ar 
     6    4    7 ar 
     7    5    6 1  
     8    5   14 ar 
     9    7    8 ar 
    10    7   15 1  
    11    8    9 ar 
    12    9   10 ar 
    13    9   14 ar 
    14   10   11 ar 
    15   11   12 ar 
    16   12   13 ar 
    17   13   14 ar 
    18   15   16 1  
    19   16   17 ar 
    20   16   23 ar 
    21   17   18 ar 
    22   18   19 1  
    23   18   21 ar 
    24   19   20 1  
    25   21   22 ar 
    26   22   23 ar 
    27   22   24 1  
    28   24   25 1  
    29    1   26 1  
    30    1   27 1  
    31   10   28 1  
    32   11   29 1  
    33   12   30 1  
    34   13   31 1  
    35   15   32 1  
    36   15   33 1  
    37   17   34 1  
    38   20   35 1  
    39   20   36 1  
    40   20   37 1  
    41   21   38 1  
    42   23   39 1  
    43   25   40 1  
    44   25   41 1  
    45   25   42 1  
    46    6   43 1  
@<TRIPOS>SUBSTRUCTURE
     1 6LV         1

