4cwn_ligand
  -I-interpret- 

 42 45  0  0  0  0  0  0  0  0999 V2000
   -2.1820   11.8510   24.1340 N   0  0  0  0  0
   -1.1030   11.2090   24.6520 C   0  0  0  0  0
    0.0870   11.2150   24.0040 N   0  0  0  0  0
    0.8100   10.4470   24.9050 N   0  0  0  0  0
    0.0960   10.0490   25.9560 C   0  0  0  0  0
   -1.1660   10.5400   25.8320 N   0  0  0  0  0
    2.1010   10.0850   24.7630 C   0  0  0  0  0
    2.6910    9.3310   25.7130 N   0  0  0  0  0
    1.9920    8.9160   26.8100 C   0  0  0  0  0
    2.6110    8.1350   27.7810 C   0  0  0  0  0
    1.9060    7.7120   28.9070 C   0  0  0  0  0
    0.5620    8.0640   29.0590 C   0  0  0  0  0
   -0.0720    8.8540   28.0890 C   0  0  0  0  0
    0.6490    9.2760   26.9690 C   0  0  0  0  0
    2.9150   10.5200   23.5730 C   0  0  0  0  0
    3.8760   11.6110   23.9770 C   0  0  0  0  0
    3.3790   12.7910   24.5230 C   0  0  0  0  0
    4.2360   13.8240   24.8990 C   0  0  0  0  0
    3.6870   14.9690   25.4390 O   0  0  0  0  0
    4.5100   16.0500   25.9040 C   0  0  0  0  0
    5.6120   13.6590   24.7170 C   0  0  0  0  0
    6.1110   12.4730   24.1700 C   0  0  0  0  0
    5.2440   11.4370   23.7980 C   0  0  0  0  0
    7.4680   12.3540   24.0000 O   0  0  0  0  0
    8.1200   11.1110   23.7330 C   0  0  0  0  0
   -2.1029   12.3463   23.2458 H   0  0  0  0  0
   -3.0714   11.8378   24.6331 H   0  0  0  0  0
    3.6565    7.8513   27.6603 H   0  0  0  0  0
    2.4019    7.1082   29.6670 H   0  0  0  0  0
    0.0058    7.7241   29.9326 H   0  0  0  0  0
   -1.1181    9.1363   28.2078 H   0  0  0  0  0
    2.2464   10.8988   22.8000 H   0  0  0  0  0
    3.4786    9.6680   23.1929 H   0  0  0  0  0
    2.3039   12.9090   24.6585 H   0  0  0  0  0
    5.1655   15.6907   26.6973 H   0  0  0  0  0
    5.1114   16.4286   25.0775 H   0  0  0  0  0
    3.8756   16.8484   26.2889 H   0  0  0  0  0
    6.2977   14.4569   25.0022 H   0  0  0  0  0
    5.6349   10.5112   23.3758 H   0  0  0  0  0
    7.9288   10.4185   24.5527 H   0  0  0  0  0
    7.7337   10.6918   22.8039 H   0  0  0  0  0
    9.1931   11.2778   23.6393 H   0  0  0  0  0
  1  2  1  0  0  0
  2  3  4  0  0  0
  2  6  4  0  0  0
  3  4  4  0  0  0
  4  5  4  0  0  0
  4  7  4  0  0  0
  5  6  4  0  0  0
  5 14  4  0  0  0
  7  8  4  0  0  0
  7 15  1  0  0  0
  8  9  4  0  0  0
  9 10  4  0  0  0
  9 14  4  0  0  0
 10 11  4  0  0  0
 11 12  4  0  0  0
 12 13  4  0  0  0
 13 14  4  0  0  0
 15 16  1  0  0  0
 16 17  4  0  0  0
 16 23  4  0  0  0
 17 18  4  0  0  0
 18 19  1  0  0  0
 18 21  4  0  0  0
 19 20  1  0  0  0
 21 22  4  0  0  0
 22 23  4  0  0  0
 22 24  1  0  0  0
 24 25  1  0  0  0
  1 26  1  0  0  0
  1 27  1  0  0  0
 10 28  1  0  0  0
 11 29  1  0  0  0
 12 30  1  0  0  0
 13 31  1  0  0  0
 15 32  1  0  0  0
 15 33  1  0  0  0
 17 34  1  0  0  0
 20 35  1  0  0  0
 20 36  1  0  0  0
 20 37  1  0  0  0
 21 38  1  0  0  0
 23 39  1  0  0  0
 25 40  1  0  0  0
 25 41  1  0  0  0
 25 42  1  0  0  0
M  END
$$$$
