4u73_ligand
  -I-interpret- 

 23 23  0  0  0  0  0  0  0  0999 V2000
   22.3290   -2.3310   12.7250 O   0  0  0  0  0
   21.8670   -2.6160   11.3020 P   0  0  0  0  0
   21.7660   -1.4690   10.6080 O   0  0  0  0  0
   20.5380   -3.3280   11.2420 O   0  0  0  0  0
   23.1940   -3.6020   10.4920 C   0  0  0  0  0
   24.1970   -2.9390    9.7350 N   0  3  0  0  0
   23.4570   -4.9940   10.8910 C   0  0  0  0  0
   24.5160   -5.6780   10.3450 C   0  0  0  0  0
   24.7650   -6.9970   10.6740 C   0  0  0  0  0
   23.9430   -7.6910   11.5130 C   0  0  0  0  0
   22.8910   -7.0080   12.0650 C   0  0  0  0  0
   22.6330   -5.6820   11.7430 C   0  0  0  0  0
   22.3971   -3.1569   13.2096 H   0  0  0  0  0
   20.5944   -4.1504   11.7340 H   0  0  0  0  0
   22.4757   -3.8493    9.7104 H   0  0  0  0  0
   23.8911   -1.9887    9.5261 H   0  0  0  0  0
   25.0628   -2.9081   10.2733 H   0  0  0  0  0
   24.3546   -3.4459    8.8640 H   0  0  0  0  0
   25.1727   -5.1704    9.6385 H   0  0  0  0  0
   25.6388   -7.4946   10.2532 H   0  0  0  0  0
   24.1157   -8.7441   11.7349 H   0  0  0  0  0
   22.2402   -7.5185   12.7749 H   0  0  0  0  0
   21.7648   -5.1825   12.1730 H   0  0  0  0  0
  1  2  1  0  0  0
  2  3  2  0  0  0
  2  4  1  0  0  0
  2  5  1  0  0  0
  5  6  1  0  0  0
  5  7  1  0  0  0
  7  8  4  0  0  0
  7 12  4  0  0  0
  8  9  4  0  0  0
  9 10  4  0  0  0
 10 11  4  0  0  0
 11 12  4  0  0  0
  1 13  1  0  0  0
  4 14  1  0  0  0
  5 15  1  0  0  0
  6 16  1  0  0  0
  6 17  1  0  0  0
  6 18  1  0  0  0
  8 19  1  0  0  0
  9 20  1  0  0  0
 10 21  1  0  0  0
 11 22  1  0  0  0
 12 23  1  0  0  0
M  END
$$$$
