### 
### Created by X-TOOL on Mon Sep 10 21:13:22 2018
### 

@<TRIPOS>MOLECULE
4u73_ligand
   21    21     1     0     0
SMALL
GAST_HUCK


@<TRIPOS>ATOM
      1 O          22.3290   -2.3310   12.7250 O.co2     1 Q02        -0.5571
      2 P          21.8670   -2.6160   11.3020 P.3       1 Q02         0.1231
      3 O1         21.7660   -1.4690   10.6080 O.co2     1 Q02        -0.5571
      4 O2         20.5380   -3.3280   11.2420 O.co2     1 Q02        -0.5571
      5 C          23.1940   -3.6020   10.4920 C.3       1 Q02         0.0775
      6 N          24.1970   -2.9390    9.7350 N.4       1 Q02         0.2451
      7 C1         23.4570   -4.9940   10.8910 C.ar      1 Q02         0.0212
      8 C6         24.5160   -5.6780   10.3450 C.ar      1 Q02        -0.0535
      9 C5         24.7650   -6.9970   10.6740 C.ar      1 Q02        -0.0683
     10 C4         23.9430   -7.6910   11.5130 C.ar      1 Q02        -0.0687
     11 C3         22.8910   -7.0080   12.0650 C.ar      1 Q02        -0.0683
     12 C2         22.6330   -5.6820   11.7430 C.ar      1 Q02        -0.0535
     13 H1         22.5778   -3.8715    9.6216 H         1 Q02         0.1217
     14 H2         24.8412   -3.6189    9.3625 H         1 Q02         0.2025
     15 H3         24.6950   -2.2944   10.3287 H         1 Q02         0.2025
     16 H4         23.7665   -2.4334    8.9767 H         1 Q02         0.2025
     17 H5         25.1691   -5.1732    9.6423 H         1 Q02         0.0559
     18 H6         25.6340   -7.4918   10.2555 H         1 Q02         0.0599
     19 H7         24.1148   -8.7383   11.7336 H         1 Q02         0.0559
     20 H8         22.2438   -7.5157   12.7710 H         1 Q02         0.0599
     21 H9         21.7696   -5.1852   12.1706 H         1 Q02         0.0559
@<TRIPOS>BOND
     1    1    2 ar 
     2    2    3 ar 
     3    2    4 ar 
     4    2    5 1  
     5    5    6 1  
     6    5    7 1  
     7    7    8 ar 
     8    7   12 ar 
     9    8    9 ar 
    10    9   10 ar 
    11   10   11 ar 
    12   11   12 ar 
    13    5   13 1  
    14    6   14 1  
    15    6   15 1  
    16    6   16 1  
    17    8   17 1  
    18    9   18 1  
    19   10   19 1  
    20   11   20 1  
    21   12   21 1  
@<TRIPOS>SUBSTRUCTURE
     1 Q02         1

