4dsy_ligand
  -I-interpret- 

 24 25  0  0  0  0  0  0  0  0999 V2000
  -73.9090   35.1500  -44.9110 C   0  0  0  0  0
  -74.1900   35.2750  -46.2700 C   0  0  0  0  0
  -73.3550   34.6880  -47.2200 C   0  0  0  0  0
  -72.2340   33.9740  -46.8170 C   0  0  0  0  0
  -71.9540   33.8540  -45.4580 C   0  0  0  0  0
  -72.7850   34.4360  -44.4990 C   0  0  0  0  0
  -72.4940   34.3020  -43.0300 C   0  0  0  0  0
  -71.4950   33.4550  -42.5410 C   0  0  0  0  0
  -73.2470   35.0350  -42.1230 C   0  0  0  0  0
  -73.0070   34.9320  -40.8090 N   0  0  0  0  0
  -72.0580   34.1310  -40.3200 C   0  0  0  0  0
  -71.2890   33.3590  -41.1660 C   0  0  0  0  0
  -70.2300   32.4850  -40.6080 C   0  0  0  0  0
  -70.4640   31.5630  -39.7580 O   0  0  0  0  0
  -69.0660   32.7180  -41.0170 O   0  0  0  0  0
  -74.5661   35.6091  -44.1724 H   0  0  0  0  0
  -75.0678   35.8350  -46.5924 H   0  0  0  0  0
  -73.5825   34.7897  -48.2811 H   0  0  0  0  0
  -71.5800   33.5123  -47.5567 H   0  0  0  0  0
  -71.0730   33.2974  -45.1384 H   0  0  0  0  0
  -70.8818   32.8741  -43.2300 H   0  0  0  0  0
  -74.0360   35.6964  -42.4810 H   0  0  0  0  0
  -71.8893   34.0865  -39.2441 H   0  0  0  0  0
  -71.4047   31.5353  -39.5684 H   0  0  0  0  0
  1  2  4  0  0  0
  1  6  4  0  0  0
  2  3  4  0  0  0
  3  4  4  0  0  0
  4  5  4  0  0  0
  5  6  4  0  0  0
  6  7  1  0  0  0
  7  8  4  0  0  0
  7  9  4  0  0  0
  8 12  4  0  0  0
  9 10  4  0  0  0
 10 11  4  0  0  0
 11 12  4  0  0  0
 12 13  1  0  0  0
 13 14  1  0  0  0
 13 15  2  0  0  0
  1 16  1  0  0  0
  2 17  1  0  0  0
  3 18  1  0  0  0
  4 19  1  0  0  0
  5 20  1  0  0  0
  8 21  1  0  0  0
  9 22  1  0  0  0
 11 23  1  0  0  0
 14 24  1  0  0  0
M  END
$$$$
