### 
### Created by X-TOOL on Mon Sep 10 21:13:08 2018
### 

@<TRIPOS>MOLECULE
4dsy_ligand
   23    24     1     0     0
SMALL
GAST_HUCK


@<TRIPOS>ATOM
      1 CAF       -73.9090   35.1500  -44.9110 C.ar      1 0LO        -0.0523
      2 CAD       -74.1900   35.2750  -46.2700 C.ar      1 0LO        -0.0603
      3 CAC       -73.3550   34.6880  -47.2200 C.ar      1 0LO        -0.0609
      4 CAE       -72.2340   33.9740  -46.8170 C.ar      1 0LO        -0.0603
      5 CAG       -71.9540   33.8540  -45.4580 C.ar      1 0LO        -0.0523
      6 CAN       -72.7850   34.4360  -44.4990 C.ar      1 0LO        -0.0101
      7 CAO       -72.4940   34.3020  -43.0300 C.ar      1 0LO         0.0129
      8 CAJ       -71.4950   33.4550  -42.5410 C.ar      1 0LO        -0.0210
      9 CAI       -73.2470   35.0350  -42.1230 C.ar      1 0LO         0.0211
     10 NAK       -73.0070   34.9320  -40.8090 N.ar      1 0LO        -0.2926
     11 CAH       -72.0580   34.1310  -40.3200 C.ar      1 0LO         0.0249
     12 CAM       -71.2890   33.3590  -41.1660 C.ar      1 0LO         0.0379
     13 CAL       -70.2300   32.4850  -40.6080 C.2       1 0LO         0.0702
     14 OAB       -70.4640   31.5630  -39.7580 O.co2     1 0LO        -0.5587
     15 OAA       -69.0660   32.7180  -41.0170 O.co2     1 0LO        -0.5587
     16 H1        -74.5625   35.6066  -44.1764 H         1 0LO         0.0631
     17 H2        -75.0630   35.8319  -46.5906 H         1 0LO         0.0620
     18 H3        -73.5813   34.7892  -48.2753 H         1 0LO         0.0624
     19 H4        -71.5836   33.5148  -47.5527 H         1 0LO         0.0620
     20 H5        -71.0778   33.3005  -45.1402 H         1 0LO         0.0631
     21 H6        -70.8852   32.8773  -43.2262 H         1 0LO         0.0774
     22 H7        -74.0316   35.6928  -42.4790 H         1 0LO         0.0849
     23 H8        -71.8902   34.0867  -39.2500 H         1 0LO         0.0852
@<TRIPOS>BOND
     1    1    2 ar 
     2    1    6 ar 
     3    2    3 ar 
     4    3    4 ar 
     5    4    5 ar 
     6    5    6 ar 
     7    6    7 1  
     8    7    8 ar 
     9    7    9 ar 
    10    8   12 ar 
    11    9   10 ar 
    12   10   11 ar 
    13   11   12 ar 
    14   12   13 1  
    15   13   14 ar 
    16   13   15 ar 
    17    1   16 1  
    18    2   17 1  
    19    3   18 1  
    20    4   19 1  
    21    5   20 1  
    22    8   21 1  
    23    9   22 1  
    24   11   23 1  
@<TRIPOS>SUBSTRUCTURE
     1 0LO         1

