### 
### Created by X-TOOL on Mon Sep 10 21:12:56 2018
### 

@<TRIPOS>MOLECULE
2i4v_ligand
   77    80     1     0     0
SMALL
GAST_HUCK


@<TRIPOS>ATOM
      1 C          11.6980   18.2150   18.3740 C.3       1 DJR         0.0449
      2 O          10.8280   18.7930   20.4120 O.3       1 DJR        -0.3480
      3 C27        10.4160   18.2310   19.1570 C.3       1 DJR         0.1648
      4 O9          9.6540   19.1130   18.3340 O.3       1 DJR        -0.3509
      5 C2          9.9510   18.7710   16.9880 C.3       1 DJR         0.0512
      6 C1         11.4620   18.5440   16.9100 C.3       1 DJR        -0.0191
      7 C3         12.2640   18.8000   20.4370 C.3       1 DJR         0.0815
      8 C5         12.8020   18.9740   19.0180 C.3       1 DJR         0.1189
      9 O4         12.6580   20.3310   18.6270 O.3       1 DJR        -0.2578
     10 C4         13.7060   20.8650   18.0010 C.2       1 DJR         0.3203
     11 O5         14.7650   20.2900   17.7550 O.2       1 DJR        -0.3775
     12 N1         13.4110   22.1310   17.6710 N.am      1 DJR        -0.2550
     13 C6         14.3780   22.9360   16.9740 C.3       1 DJR         0.0807
     14 C8         13.7730   23.4800   15.6540 C.3       1 DJR         0.0064
     15 C9         13.2820   22.3100   14.8050 C.ar      1 DJR        -0.0408
     16 C11        14.1770   21.6480   13.9460 C.ar      1 DJR        -0.0603
     17 C13        13.7270   20.5610   13.1720 C.ar      1 DJR        -0.0686
     18 C14        12.3820   20.1390   13.2570 C.ar      1 DJR        -0.0687
     19 C12        11.4850   20.8040   14.1130 C.ar      1 DJR        -0.0686
     20 C10        11.9340   21.8890   14.8910 C.ar      1 DJR        -0.0603
     21 C7         14.8040   24.0680   17.9200 C.3       1 DJR         0.0967
     22 O6         13.6470   24.7650   18.3620 O.3       1 DJR        -0.3877
     23 C15        15.7030   25.0420   17.1980 C.3       1 DJR         0.0578
     24 N2         17.1240   24.6670   17.2320 N.am      1 DJR        -0.2325
     25 S          17.8410   24.3110   15.7560 S.o2      1 DJR         0.0657
     26 O8         18.5350   22.9740   15.8120 O.2       1 DJR        -0.1515
     27 O7         16.7250   24.1020   14.7600 O.2       1 DJR        -0.1515
     28 C18        18.7820   25.7020   15.2950 C.ar      1 DJR         0.0971
     29 C23        20.1500   25.7970   15.5720 C.ar      1 DJR        -0.0440
     30 C22        20.8560   26.9620   15.2050 C.ar      1 DJR        -0.0313
     31 C21        20.1880   28.0360   14.5650 C.ar      1 DJR         0.0908
     32 O1         20.8700   29.2130   14.2040 O.3       1 DJR        -0.3212
     33 C26        22.2700   29.2720   14.5230 C.3       1 DJR         0.0594
     34 C20        18.8190   27.9220   14.2950 C.ar      1 DJR        -0.0313
     35 C19        18.1210   26.7660   14.6560 C.ar      1 DJR        -0.0440
     36 C16        18.0040   24.9860   18.3820 C.3       1 DJR         0.0319
     37 C17        17.7070   24.1090   19.6260 C.3       1 DJR        -0.0296
     38 C25        18.7510   24.4240   20.7130 C.3       1 DJR        -0.0612
     39 C24        17.7900   22.6080   19.2820 C.3       1 DJR        -0.0612
     40 H1         12.0344   17.1677   18.3838 H         1 DJR         0.0380
     41 H2          9.9332   17.2509   19.2843 H         1 DJR         0.0913
     42 H3          9.6565   19.5903   16.3157 H         1 DJR         0.0561
     43 H4          9.4155   17.8531   16.7040 H         1 DJR         0.0561
     44 H5         11.7245   17.7068   16.2465 H         1 DJR         0.0293
     45 H6         12.0038   19.4472   16.5926 H         1 DJR         0.0293
     46 H7         12.6273   17.8482   20.8517 H         1 DJR         0.0590
     47 H8         12.6149   19.6316   21.0657 H         1 DJR         0.0590
     48 H9         13.8162   18.5840   18.8470 H         1 DJR         0.0675
     49 H10        12.5191   22.5152   17.9094 H         1 DJR         0.1873
     50 H11        15.2571   22.3219   16.7290 H         1 DJR         0.0604
     51 H12        14.5417   24.0389   15.1002 H         1 DJR         0.0449
     52 H13        12.9290   24.1469   15.8839 H         1 DJR         0.0449
     53 H14        15.2090   21.9730   13.8798 H         1 DJR         0.0557
     54 H15        14.4143   20.0472   12.5097 H         1 DJR         0.0599
     55 H16        12.0398   19.3006   12.6612 H         1 DJR         0.0559
     56 H17        10.4516   20.4824   14.1736 H         1 DJR         0.0599
     57 H18        11.2472   22.4011   15.5552 H         1 DJR         0.0557
     58 H19        15.3372   23.6437   18.7835 H         1 DJR         0.0634
     59 H20        13.9059   25.4666   18.9478 H         1 DJR         0.2100
     60 H21        15.5929   26.0307   17.6675 H         1 DJR         0.0504
     61 H22        15.3830   25.0974   16.1471 H         1 DJR         0.0504
     62 H23        20.6644   24.9804   16.0656 H         1 DJR         0.0608
     63 H24        21.9171   27.0364   15.4140 H         1 DJR         0.0542
     64 H25        22.6814   30.2366   14.1908 H         1 DJR         0.0577
     65 H26        22.7974   28.4530   14.0121 H         1 DJR         0.0577
     66 H27        22.4029   29.1717   15.6103 H         1 DJR         0.0577
     67 H28        18.2973   28.7350   13.8031 H         1 DJR         0.0542
     68 H29        17.0612   26.6891   14.4416 H         1 DJR         0.0608
     69 H30        17.8589   26.0420   18.6535 H         1 DJR         0.0480
     70 H31        19.0494   24.8253   18.0800 H         1 DJR         0.0480
     71 H32        16.6989   24.3402   20.0005 H         1 DJR         0.0311
     72 H33        18.5517   23.8079   21.6022 H         1 DJR         0.0233
     73 H34        18.6893   25.4885   20.9832 H         1 DJR         0.0233
     74 H35        19.7577   24.2005   20.3303 H         1 DJR         0.0233
     75 H36        17.0486   22.3683   18.5056 H         1 DJR         0.0233
     76 H37        17.5821   22.0131   20.1836 H         1 DJR         0.0233
     77 H38        18.7984   22.3719   18.9114 H         1 DJR         0.0233
@<TRIPOS>BOND
     1    1    3 1  
     2    1    6 1  
     3    1    8 1  
     4    3    2 1  
     5    2    7 1  
     6    3    4 1  
     7    4    5 1  
     8    5    6 1  
     9    7    8 1  
    10    8    9 1  
    11    9   10 1  
    12   10   11 2  
    13   10   12 am 
    14   12   13 1  
    15   13   14 1  
    16   13   21 1  
    17   14   15 1  
    18   15   16 ar 
    19   15   20 ar 
    20   16   17 ar 
    21   17   18 ar 
    22   18   19 ar 
    23   19   20 ar 
    24   21   22 1  
    25   21   23 1  
    26   23   24 1  
    27   24   25 am 
    28   24   36 1  
    29   25   26 2  
    30   25   27 2  
    31   25   28 1  
    32   28   29 ar 
    33   28   35 ar 
    34   29   30 ar 
    35   30   31 ar 
    36   31   32 1  
    37   31   34 ar 
    38   32   33 1  
    39   34   35 ar 
    40   36   37 1  
    41   37   38 1  
    42   37   39 1  
    43    1   40 1  
    44    3   41 1  
    45    5   42 1  
    46    5   43 1  
    47    6   44 1  
    48    6   45 1  
    49    7   46 1  
    50    7   47 1  
    51    8   48 1  
    52   12   49 1  
    53   13   50 1  
    54   14   51 1  
    55   14   52 1  
    56   16   53 1  
    57   17   54 1  
    58   18   55 1  
    59   19   56 1  
    60   20   57 1  
    61   21   58 1  
    62   22   59 1  
    63   23   60 1  
    64   23   61 1  
    65   29   62 1  
    66   30   63 1  
    67   33   64 1  
    68   33   65 1  
    69   33   66 1  
    70   34   67 1  
    71   35   68 1  
    72   36   69 1  
    73   36   70 1  
    74   37   71 1  
    75   38   72 1  
    76   38   73 1  
    77   38   74 1  
    78   39   75 1  
    79   39   76 1  
    80   39   77 1  
@<TRIPOS>SUBSTRUCTURE
     1 DJR         1

