2i4v_ligand
  -I-interpret- 

 77 80  0  0  0  0  0  0  0  0999 V2000
   11.6980   18.2150   18.3740 C   0  0  0  0  0
   10.8280   18.7930   20.4120 O   0  0  0  0  0
   10.4160   18.2310   19.1570 C   0  0  0  0  0
    9.6540   19.1130   18.3340 O   0  0  0  0  0
    9.9510   18.7710   16.9880 C   0  0  0  0  0
   11.4620   18.5440   16.9100 C   0  0  0  0  0
   12.2640   18.8000   20.4370 C   0  0  0  0  0
   12.8020   18.9740   19.0180 C   0  0  0  0  0
   12.6580   20.3310   18.6270 O   0  0  0  0  0
   13.7060   20.8650   18.0010 C   0  0  0  0  0
   14.7650   20.2900   17.7550 O   0  0  0  0  0
   13.4110   22.1310   17.6710 N   0  0  0  0  0
   14.3780   22.9360   16.9740 C   0  0  0  0  0
   13.7730   23.4800   15.6540 C   0  0  0  0  0
   13.2820   22.3100   14.8050 C   0  0  0  0  0
   14.1770   21.6480   13.9460 C   0  0  0  0  0
   13.7270   20.5610   13.1720 C   0  0  0  0  0
   12.3820   20.1390   13.2570 C   0  0  0  0  0
   11.4850   20.8040   14.1130 C   0  0  0  0  0
   11.9340   21.8890   14.8910 C   0  0  0  0  0
   14.8040   24.0680   17.9200 C   0  0  0  0  0
   13.6470   24.7650   18.3620 O   0  0  0  0  0
   15.7030   25.0420   17.1980 C   0  0  0  0  0
   17.1240   24.6670   17.2320 N   0  0  0  0  0
   17.8410   24.3110   15.7560 S   0  0  0  0  0
   18.5350   22.9740   15.8120 O   0  0  0  0  0
   16.7250   24.1020   14.7600 O   0  0  0  0  0
   18.7820   25.7020   15.2950 C   0  0  0  0  0
   20.1500   25.7970   15.5720 C   0  0  0  0  0
   20.8560   26.9620   15.2050 C   0  0  0  0  0
   20.1880   28.0360   14.5650 C   0  0  0  0  0
   20.8700   29.2130   14.2040 O   0  0  0  0  0
   22.2700   29.2720   14.5230 C   0  0  0  0  0
   18.8190   27.9220   14.2950 C   0  0  0  0  0
   18.1210   26.7660   14.6560 C   0  0  0  0  0
   18.0040   24.9860   18.3820 C   0  0  0  0  0
   17.7070   24.1090   19.6260 C   0  0  0  0  0
   18.7510   24.4240   20.7130 C   0  0  0  0  0
   17.7900   22.6080   19.2820 C   0  0  0  0  0
   12.0677   17.1897   18.3870 H   0  0  0  0  0
    9.8605   17.3158   19.3620 H   0  0  0  0  0
    9.6442   19.5674   16.3100 H   0  0  0  0  0
    9.4093   17.8738   16.6885 H   0  0  0  0  0
   11.7878   17.7851   16.1986 H   0  0  0  0  0
   12.0433   19.3772   16.5152 H   0  0  0  0  0
   12.6231   17.8559   20.8466 H   0  0  0  0  0
   12.6108   19.6253   21.0589 H   0  0  0  0  0
   13.8363   18.6875   18.8276 H   0  0  0  0  0
   12.5012   22.5229   17.9142 H   0  0  0  0  0
   15.2524   22.3475   16.6962 H   0  0  0  0  0
   14.5337   24.0354   15.1053 H   0  0  0  0  0
   12.9376   24.1424   15.8809 H   0  0  0  0  0
   15.2147   21.9748   13.8795 H   0  0  0  0  0
   14.4181   20.0444   12.5060 H   0  0  0  0  0
   12.0379   19.2959   12.6579 H   0  0  0  0  0
   10.4459   20.4806   14.1739 H   0  0  0  0  0
   11.2434   22.4039   15.5588 H   0  0  0  0  0
   15.3396   23.6376   18.7661 H   0  0  0  0  0
   13.9086   25.4740   18.9540 H   0  0  0  0  0
   15.6074   26.0065   17.6966 H   0  0  0  0  0
   15.3942   25.0589   16.1528 H   0  0  0  0  0
   20.6672   24.9759   16.0684 H   0  0  0  0  0
   21.9229   27.0368   15.4151 H   0  0  0  0  0
   22.4003   29.1725   15.6006 H   0  0  0  0  0
   22.7914   28.4600   14.0162 H   0  0  0  0  0
   22.6765   30.2281   14.1933 H   0  0  0  0  0
   18.2944   28.7395   13.8004 H   0  0  0  0  0
   17.0553   26.6887   14.4404 H   0  0  0  0  0
   17.8302   26.0263   18.6573 H   0  0  0  0  0
   19.0334   24.7967   18.0777 H   0  0  0  0  0
   16.6984   24.3310   19.9747 H   0  0  0  0  0
   19.7481   24.2022   20.3325 H   0  0  0  0  0
   18.6889   25.4790   20.9798 H   0  0  0  0  0
   18.5525   23.8130   21.5935 H   0  0  0  0  0
   17.0598   22.3731   18.5076 H   0  0  0  0  0
   18.7917   22.3740   18.9217 H   0  0  0  0  0
   17.5769   22.0197   20.1745 H   0  0  0  0  0
  1  3  1  0  0  0
  1  6  1  0  0  0
  1  8  1  0  0  0
  3  2  1  0  0  0
  2  7  1  0  0  0
  3  4  1  0  0  0
  4  5  1  0  0  0
  5  6  1  0  0  0
  7  8  1  0  0  0
  8  9  1  0  0  0
  9 10  1  0  0  0
 10 11  2  0  0  0
 10 12  1  0  0  0
 12 13  1  0  0  0
 13 14  1  0  0  0
 13 21  1  0  0  0
 14 15  1  0  0  0
 15 16  4  0  0  0
 15 20  4  0  0  0
 16 17  4  0  0  0
 17 18  4  0  0  0
 18 19  4  0  0  0
 19 20  4  0  0  0
 21 22  1  0  0  0
 21 23  1  0  0  0
 23 24  1  0  0  0
 24 25  1  0  0  0
 24 36  1  0  0  0
 25 26  2  0  0  0
 25 27  2  0  0  0
 25 28  1  0  0  0
 28 29  4  0  0  0
 28 35  4  0  0  0
 29 30  4  0  0  0
 30 31  4  0  0  0
 31 32  1  0  0  0
 31 34  4  0  0  0
 32 33  1  0  0  0
 34 35  4  0  0  0
 36 37  1  0  0  0
 37 38  1  0  0  0
 37 39  1  0  0  0
  1 40  1  0  0  0
  3 41  1  0  0  0
  5 42  1  0  0  0
  5 43  1  0  0  0
  6 44  1  0  0  0
  6 45  1  0  0  0
  7 46  1  0  0  0
  7 47  1  0  0  0
  8 48  1  0  0  0
 12 49  1  0  0  0
 13 50  1  0  0  0
 14 51  1  0  0  0
 14 52  1  0  0  0
 16 53  1  0  0  0
 17 54  1  0  0  0
 18 55  1  0  0  0
 19 56  1  0  0  0
 20 57  1  0  0  0
 21 58  1  0  0  0
 22 59  1  0  0  0
 23 60  1  0  0  0
 23 61  1  0  0  0
 29 62  1  0  0  0
 30 63  1  0  0  0
 33 64  1  0  0  0
 33 65  1  0  0  0
 33 66  1  0  0  0
 34 67  1  0  0  0
 35 68  1  0  0  0
 36 69  1  0  0  0
 36 70  1  0  0  0
 37 71  1  0  0  0
 38 72  1  0  0  0
 38 73  1  0  0  0
 38 74  1  0  0  0
 39 75  1  0  0  0
 39 76  1  0  0  0
 39 77  1  0  0  0
M  END
$$$$
