4zx1_ligand
  -I-interpret- 

 52 53  0  0  0  0  0  0  0  0999 V2000
   -0.1420    7.8380   82.2150 C   0  0  0  0  0
    0.6410    5.6480   81.4960 O   0  0  0  0  0
    1.4360    9.0260   83.7090 C   0  0  0  0  0
   -0.4150    5.8270   79.2570 C   0  0  0  0  0
    0.3310    5.0430   80.2820 C   0  0  0  0  0
    0.6280    3.9010   80.0740 O   0  0  0  0  0
    1.0310    7.0830   81.6560 C   0  0  0  0  0
    2.3110    7.2140   82.3690 C   0  0  0  0  0
    3.0200    5.9000   82.3570 O   0  0  0  0  0
    2.3510    7.8180   83.7330 C   0  0  0  0  0
    3.6450    8.3470   84.0770 O   0  0  0  0  0
    1.7850   10.0020   82.7020 C   0  0  0  0  0
    0.7350   10.3610   81.8020 O   0  0  0  0  0
    0.1110    8.3410   83.5220 O   0  0  0  0  0
   -1.6060    6.8720   82.5840 S   0  0  0  0  0
   -2.2920    7.8330   83.4420 O   0  0  0  0  0
   -2.5400    6.7310   81.4700 O   0  0  0  0  0
   -1.1650    5.7110   83.1660 N   0  0  0  0  0
   -1.5100    4.4450   82.5790 C   0  0  0  0  0
   -0.8920    3.2690   83.3230 C   0  0  0  0  0
   -0.9620    5.7990   84.6030 C   0  0  0  0  0
   -1.2880    4.5490   85.3930 C   0  0  0  0  0
   -0.7280    3.4030   84.7540 C   0  0  0  0  0
   -1.6390    2.4020   85.3500 O   0  0  0  0  0
   -1.3070    1.4270   86.4190 S   0  0  0  0  0
   -0.9390    1.8390   87.7340 O   0  0  0  0  0
   -2.6210    1.2550   86.8810 O   0  0  0  0  0
   -1.0260    0.0210   85.9520 N   0  0  0  0  0
   -0.2919    8.5666   81.4182 H   0  0  0  0  0
    1.4758    9.6606   84.5943 H   0  0  0  0  0
    0.1714    5.8736   78.3394 H   0  0  0  0  0
   -1.3702    5.3424   79.0550 H   0  0  0  0  0
   -0.5898    6.8363   79.6297 H   0  0  0  0  0
    1.2498    7.5535   80.6975 H   0  0  0  0  0
    2.8163    7.9879   81.7912 H   0  0  0  0  0
    3.8556    5.9843   82.8221 H   0  0  0  0  0
    2.0755    7.0378   84.4425 H   0  0  0  0  0
    3.6120    8.7210   84.9605 H   0  0  0  0  0
    2.5730    9.5544   82.0963 H   0  0  0  0  0
    2.0613   10.9119   83.2347 H   0  0  0  0  0
    1.0610   11.0102   81.1744 H   0  0  0  0  0
   -1.1301    4.4335   81.5574 H   0  0  0  0  0
   -2.5939    4.3384   82.6229 H   0  0  0  0  0
    0.1145    3.1599   82.9192 H   0  0  0  0  0
   -1.5797    2.4353   83.1812 H   0  0  0  0  0
   -1.6380    6.5749   84.9622 H   0  0  0  0  0
    0.1009    5.9888   84.7524 H   0  0  0  0  0
   -2.3705    4.4337   85.4482 H   0  0  0  0  0
   -0.8681    4.6401   86.3947 H   0  0  0  0  0
    0.3533    3.3704   84.8873 H   0  0  0  0  0
   -0.5698   -0.6427   86.5779 H   0  0  0  0  0
   -1.2921   -0.2663   85.0102 H   0  0  0  0  0
  1  7  1  0  0  0
 14  1  1  0  0  0
  1 15  1  0  0  0
  2  5  1  0  0  0
  7  2  1  0  0  0
  3 10  1  0  0  0
  3 12  1  0  0  0
  3 14  1  0  0  0
  5  4  1  0  0  0
  5  6  2  0  0  0
  7  8  1  0  0  0
  8  9  1  0  0  0
  8 10  1  0  0  0
 10 11  1  0  0  0
 12 13  1  0  0  0
 15 16  2  0  0  0
 15 17  2  0  0  0
 15 18  1  0  0  0
 18 19  1  0  0  0
 18 21  1  0  0  0
 19 20  1  0  0  0
 20 23  1  0  0  0
 21 22  1  0  0  0
 22 23  1  0  0  0
 23 24  1  0  0  0
 24 25  1  0  0  0
 25 26  2  0  0  0
 25 27  2  0  0  0
 25 28  1  0  0  0
  1 29  1  0  0  0
  3 30  1  0  0  0
  4 31  1  0  0  0
  4 32  1  0  0  0
  4 33  1  0  0  0
  7 34  1  0  0  0
  8 35  1  0  0  0
  9 36  1  0  0  0
 10 37  1  0  0  0
 11 38  1  0  0  0
 12 39  1  0  0  0
 12 40  1  0  0  0
 13 41  1  0  0  0
 19 42  1  0  0  0
 19 43  1  0  0  0
 20 44  1  0  0  0
 20 45  1  0  0  0
 21 46  1  0  0  0
 21 47  1  0  0  0
 22 48  1  0  0  0
 22 49  1  0  0  0
 23 50  1  0  0  0
 28 51  1  0  0  0
 28 52  1  0  0  0
M  END
$$$$
