### 
### Created by X-TOOL on Mon Sep 10 21:13:21 2018
### 

@<TRIPOS>MOLECULE
4zx1_ligand
   52    53     1     0     0
SMALL
GAST_HUCK


@<TRIPOS>ATOM
      1 C1         -0.1420    7.8380   82.2150 C.3       1 5L3         0.2269
      2 O2          0.6410    5.6480   81.4960 O.3       1 5L3        -0.2666
      3 C5          1.4360    9.0260   83.7090 C.3       1 5L3         0.1125
      4 CBI        -0.4150    5.8270   79.2570 C.3       1 5L3         0.0372
      5 CBE         0.3310    5.0430   80.2820 C.2       1 5L3         0.2311
      6 OBH         0.6280    3.9010   80.0740 O.2       1 5L3        -0.3707
      7 C2          1.0310    7.0830   81.6560 C.3       1 5L3         0.1635
      8 C3          2.3110    7.2140   82.3690 C.3       1 5L3         0.1181
      9 O3          3.0200    5.9000   82.3570 O.3       1 5L3        -0.3861
     10 C4          2.3510    7.8180   83.7330 C.3       1 5L3         0.1122
     11 O4          3.6450    8.3470   84.0770 O.3       1 5L3        -0.3865
     12 C6          1.7850   10.0020   82.7020 C.3       1 5L3         0.0730
     13 O6          0.7350   10.3610   81.8020 O.3       1 5L3        -0.3924
     14 O5          0.1110    8.3410   83.5220 O.3       1 5L3        -0.3427
     15 SAG        -1.6060    6.8720   82.5840 S.o2      1 5L3         0.0714
     16 OAH        -2.2920    7.8330   83.4420 O.2       1 5L3        -0.1527
     17 OAJ        -2.5400    6.7310   81.4700 O.2       1 5L3        -0.1527
     18 NAB        -1.1650    5.7110   83.1660 N.am      1 5L3        -0.2359
     19 CAC        -1.5100    4.4450   82.5790 C.3       1 5L3         0.0318
     20 CAD        -0.8920    3.2690   83.3230 C.3       1 5L3        -0.0071
     21 CAA        -0.9620    5.7990   84.6030 C.3       1 5L3         0.0318
     22 CAF        -1.2880    4.5490   85.3930 C.3       1 5L3        -0.0071
     23 CAE        -0.7280    3.4030   84.7540 C.3       1 5L3         0.0920
     24 OAK        -1.6390    2.4020   85.3500 O.3       1 5L3        -0.2194
     25 SAL        -1.3070    1.4270   86.4190 S.o2      1 5L3         0.1599
     26 OAN        -0.9390    1.8390   87.7340 O.2       1 5L3        -0.1270
     27 OAO        -2.6210    1.2550   86.8810 O.2       1 5L3        -0.1270
     28 NAM        -1.0260    0.0210   85.9520 N.am      1 5L3        -0.2415
     29 H1         -0.3842    8.6503   81.5140 H         1 5L3         0.0893
     30 H2          1.4573    9.5398   84.6814 H         1 5L3         0.0646
     31 H3         -0.5762    5.2042   78.3648 H         1 5L3         0.0483
     32 H4          0.1677    6.7184   78.9815 H         1 5L3         0.0483
     33 H5         -1.3870    6.1369   79.6682 H         1 5L3         0.0483
     34 H6          1.2076    7.4899   80.6494 H         1 5L3         0.0721
     35 H7          2.9073    7.8986   81.7480 H         1 5L3         0.0651
     36 H8          2.4811    5.2467   82.7876 H         1 5L3         0.2100
     37 H9          2.0279    7.0787   84.4807 H         1 5L3         0.0647
     38 H10         3.6123    8.7171   84.9514 H         1 5L3         0.2100
     39 H11         2.6155    9.5934   82.1077 H         1 5L3         0.0584
     40 H12         2.1171   10.9157   83.2166 H         1 5L3         0.0584
     41 H13         0.4411    9.5875   81.3353 H         1 5L3         0.2095
     42 H14        -1.1542    4.4301   81.5383 H         1 5L3         0.0479
     43 H15        -2.6045    4.3359   82.5939 H         1 5L3         0.0479
     44 H16         0.1040    3.0911   82.8913 H         1 5L3         0.0306
     45 H17        -1.5312    2.3918   83.1442 H         1 5L3         0.0306
     46 H18        -1.5955    6.6136   84.9840 H         1 5L3         0.0479
     47 H19         0.0957    6.0436   84.7800 H         1 5L3         0.0479
     48 H20        -2.3801    4.4329   85.4554 H         1 5L3         0.0306
     49 H21        -0.8704    4.6403   86.4065 H         1 5L3         0.0306
     50 H22         0.3300    3.2688   85.0236 H         1 5L3         0.0621
     51 H23        -0.7953   -0.6898   86.6164 H         1 5L3         0.1654
     52 H24        -1.0704   -0.2006   84.9779 H         1 5L3         0.1654
@<TRIPOS>BOND
     1    1    7 1  
     2   14    1 1  
     3    1   15 1  
     4    2    5 1  
     5    7    2 1  
     6    3   10 1  
     7    3   12 1  
     8    3   14 1  
     9    5    4 1  
    10    5    6 2  
    11    7    8 1  
    12    8    9 1  
    13    8   10 1  
    14   10   11 1  
    15   12   13 1  
    16   15   16 2  
    17   15   17 2  
    18   15   18 am 
    19   18   19 1  
    20   18   21 1  
    21   19   20 1  
    22   20   23 1  
    23   21   22 1  
    24   22   23 1  
    25   23   24 1  
    26   24   25 1  
    27   25   26 2  
    28   25   27 2  
    29   25   28 am 
    30    1   29 1  
    31    3   30 1  
    32    4   31 1  
    33    4   32 1  
    34    4   33 1  
    35    7   34 1  
    36    8   35 1  
    37    9   36 1  
    38   10   37 1  
    39   11   38 1  
    40   12   39 1  
    41   12   40 1  
    42   13   41 1  
    43   19   42 1  
    44   19   43 1  
    45   20   44 1  
    46   20   45 1  
    47   21   46 1  
    48   21   47 1  
    49   22   48 1  
    50   22   49 1  
    51   23   50 1  
    52   28   51 1  
    53   28   52 1  
@<TRIPOS>SUBSTRUCTURE
     1 5L3         1

