### 
### Created by X-TOOL on Mon Sep 10 21:13:29 2018
### 

@<TRIPOS>MOLECULE
5anv_ligand
   44    46     1     0     0
SMALL
GAST_HUCK


@<TRIPOS>ATOM
      1 CL          9.4950   23.0400    4.3760 Cl        1 RGJ        -0.0821
      2 C14        10.8900   22.0360    4.4880 C.ar      1 RGJ         0.0266
      3 N2         14.2560   19.5660    4.7320 N.pl3     1 RGJ        -0.2587
      4 C10        15.5790   19.9470    4.5900 C.ar      1 RGJ         0.1017
      5 C1         16.2330   18.3150    6.4370 C.2       1 RGJ         0.1962
      6 O          15.1690   17.7220    6.4150 O.2       1 RGJ        -0.3948
      7 N          17.1870   17.9280    7.2750 N.am      1 RGJ        -0.2922
      8 C9         15.9760   20.8950    3.5850 C.ar      1 RGJ         0.0227
      9 C7         15.5790   22.2870    1.6400 C.ar      1 RGJ         0.1291
     10 O1         14.8300   22.8150    0.6190 O.3       1 RGJ        -0.3209
     11 C17        13.5170   22.2810    0.4020 C.3       1 RGJ         0.0580
     12 C6         16.9220   22.7150    1.6700 C.ar      1 RGJ         0.1294
     13 C18        18.5870   24.1460    0.7360 C.3       1 RGJ         0.0596
     14 C11        13.1350   20.4260    4.6460 C.ar      1 RGJ         0.1005
     15 C2         16.5610   19.4020    5.4490 C.ar      1 RGJ         0.0895
     16 C          17.0110   16.7830    8.1500 C.3       1 RGJ         0.0186
     17 C4         17.3280   21.3080    3.5910 C.ar      1 RGJ         0.0173
     18 N1         18.2430   20.8180    4.4770 N.ar      1 RGJ        -0.3270
     19 C3         17.8550   19.9010    5.3340 C.ar      1 RGJ         0.0020
     20 C8         15.1340   21.3660    2.5450 C.ar      1 RGJ        -0.0215
     21 C5         17.7800   22.2210    2.6090 C.ar      1 RGJ        -0.0206
     22 O2         17.2600   23.6280    0.7080 O.3       1 RGJ        -0.3177
     23 C13        10.8080   20.7210    4.0800 C.ar      1 RGJ        -0.0611
     24 C12        11.9310   19.9190    4.1580 C.ar      1 RGJ        -0.0382
     25 C15        12.0560   22.5790    4.9900 C.ar      1 RGJ        -0.0233
     26 C16        13.1450   21.7530    5.0720 C.ar      1 RGJ         0.1561
     27 F          14.3040   22.2660    5.5400 F         1 RGJ        -0.1901
     28 H1         14.0710   18.5697    4.9164 H         1 RGJ         0.2180
     29 H2         18.0472   18.4372    7.3043 H         1 RGJ         0.1834
     30 H3         13.0447   22.8016   -0.4441 H         1 RGJ         0.0575
     31 H4         12.9084   22.4249    1.3069 H         1 RGJ         0.0575
     32 H5         13.5906   21.2069    0.1766 H         1 RGJ         0.0575
     33 H6         18.7181   24.8632   -0.0877 H         1 RGJ         0.0578
     34 H7         19.3053   23.3208    0.6214 H         1 RGJ         0.0578
     35 H8         18.7622   24.6540    1.6958 H         1 RGJ         0.0578
     36 H9         17.9184   16.6413    8.7554 H         1 RGJ         0.0482
     37 H10        16.8302   15.8829    7.5442 H         1 RGJ         0.0482
     38 H11        16.1511   16.9573    8.8135 H         1 RGJ         0.0482
     39 H12        18.6044   19.5001    6.0069 H         1 RGJ         0.0804
     40 H13        14.1207   20.9887    2.4673 H         1 RGJ         0.0532
     41 H14        18.8187   22.5312    2.6026 H         1 RGJ         0.0487
     42 H15         9.8738   20.3212    3.7026 H         1 RGJ         0.0561
     43 H16        11.8753   18.8853    3.8365 H         1 RGJ         0.0528
     44 H17        12.1071   23.6148    5.3057 H         1 RGJ         0.0579
@<TRIPOS>BOND
     1    2    1 1  
     2   23    2 ar 
     3    2   25 ar 
     4    3    4 1  
     5   14    3 1  
     6    4    8 ar 
     7    4   15 ar 
     8    5    6 2  
     9    5    7 am 
    10   15    5 1  
    11    7   16 1  
    12    8   17 ar 
    13    8   20 ar 
    14    9   10 1  
    15    9   12 ar 
    16   20    9 ar 
    17   10   11 1  
    18   21   12 ar 
    19   12   22 1  
    20   22   13 1  
    21   24   14 ar 
    22   14   26 ar 
    23   15   19 ar 
    24   17   18 ar 
    25   17   21 ar 
    26   19   18 ar 
    27   23   24 ar 
    28   25   26 ar 
    29   26   27 1  
    30    3   28 1  
    31    7   29 1  
    32   11   30 1  
    33   11   31 1  
    34   11   32 1  
    35   13   33 1  
    36   13   34 1  
    37   13   35 1  
    38   16   36 1  
    39   16   37 1  
    40   16   38 1  
    41   19   39 1  
    42   20   40 1  
    43   21   41 1  
    44   23   42 1  
    45   24   43 1  
    46   25   44 1  
@<TRIPOS>SUBSTRUCTURE
     1 RGJ         1

