5anv_ligand
  -I-interpret- 

 44 46  0  0  0  0  0  0  0  0999 V2000
    9.4950   23.0400    4.3760 Cl  0  0  0  0  0
   10.8900   22.0360    4.4880 C   0  0  0  0  0
   14.2560   19.5660    4.7320 N   0  0  0  0  0
   15.5790   19.9470    4.5900 C   0  0  0  0  0
   16.2330   18.3150    6.4370 C   0  0  0  0  0
   15.1690   17.7220    6.4150 O   0  0  0  0  0
   17.1870   17.9280    7.2750 N   0  0  0  0  0
   15.9760   20.8950    3.5850 C   0  0  0  0  0
   15.5790   22.2870    1.6400 C   0  0  0  0  0
   14.8300   22.8150    0.6190 O   0  0  0  0  0
   13.5170   22.2810    0.4020 C   0  0  0  0  0
   16.9220   22.7150    1.6700 C   0  0  0  0  0
   18.5870   24.1460    0.7360 C   0  0  0  0  0
   13.1350   20.4260    4.6460 C   0  0  0  0  0
   16.5610   19.4020    5.4490 C   0  0  0  0  0
   17.0110   16.7830    8.1500 C   0  0  0  0  0
   17.3280   21.3080    3.5910 C   0  0  0  0  0
   18.2430   20.8180    4.4770 N   0  0  0  0  0
   17.8550   19.9010    5.3340 C   0  0  0  0  0
   15.1340   21.3660    2.5450 C   0  0  0  0  0
   17.7800   22.2210    2.6090 C   0  0  0  0  0
   17.2600   23.6280    0.7080 O   0  0  0  0  0
   10.8080   20.7210    4.0800 C   0  0  0  0  0
   11.9310   19.9190    4.1580 C   0  0  0  0  0
   12.0560   22.5790    4.9900 C   0  0  0  0  0
   13.1450   21.7530    5.0720 C   0  0  0  0  0
   14.3040   22.2660    5.5400 F   0  0  0  0  0
   14.0728   18.5793    4.9146 H   0  0  0  0  0
   18.0644   18.4473    7.3048 H   0  0  0  0  0
   13.5913   21.2167    0.1788 H   0  0  0  0  0
   12.9151   22.4242    1.2994 H   0  0  0  0  0
   13.0501   22.7976   -0.4365 H   0  0  0  0  0
   18.7593   24.6490    1.6875 H   0  0  0  0  0
   19.2977   23.3274    0.6224 H   0  0  0  0  0
   18.7156   24.8565   -0.0806 H   0  0  0  0  0
   16.1587   16.9569    8.8068 H   0  0  0  0  0
   16.8319   15.8918    7.5485 H   0  0  0  0  0
   17.9107   16.6437    8.7493 H   0  0  0  0  0
   18.6085   19.4979    6.0106 H   0  0  0  0  0
   14.1151   20.9866    2.4669 H   0  0  0  0  0
   18.8244   22.5329    2.6026 H   0  0  0  0  0
    9.8686   20.3190    3.7005 H   0  0  0  0  0
   11.8750   18.8795    3.8348 H   0  0  0  0  0
   12.1074   23.6205    5.3074 H   0  0  0  0  0
  2  1  1  0  0  0
 23  2  4  0  0  0
  2 25  4  0  0  0
  3  4  1  0  0  0
 14  3  1  0  0  0
  4  8  4  0  0  0
  4 15  4  0  0  0
  5  6  2  0  0  0
  5  7  1  0  0  0
 15  5  1  0  0  0
  7 16  1  0  0  0
  8 17  4  0  0  0
  8 20  4  0  0  0
  9 10  1  0  0  0
  9 12  4  0  0  0
 20  9  4  0  0  0
 10 11  1  0  0  0
 21 12  4  0  0  0
 12 22  1  0  0  0
 22 13  1  0  0  0
 24 14  4  0  0  0
 14 26  4  0  0  0
 15 19  4  0  0  0
 17 18  4  0  0  0
 17 21  4  0  0  0
 19 18  4  0  0  0
 23 24  4  0  0  0
 25 26  4  0  0  0
 26 27  1  0  0  0
  3 28  1  0  0  0
  7 29  1  0  0  0
 11 30  1  0  0  0
 11 31  1  0  0  0
 11 32  1  0  0  0
 13 33  1  0  0  0
 13 34  1  0  0  0
 13 35  1  0  0  0
 16 36  1  0  0  0
 16 37  1  0  0  0
 16 38  1  0  0  0
 19 39  1  0  0  0
 20 40  1  0  0  0
 21 41  1  0  0  0
 23 42  1  0  0  0
 24 43  1  0  0  0
 25 44  1  0  0  0
M  END
$$$$
