### 
### Created by X-TOOL on Mon Sep 10 21:12:46 2018
### 

@<TRIPOS>MOLECULE
2pri_ligand
   26    26     1     0     0
SMALL
GAST_HUCK


@<TRIPOS>ATOM
      1 C1         25.0610    5.5700   50.7420 C.3       1 D6G         0.1591
      2 C2         23.8000    4.6460   50.9740 C.3       1 D6G         0.0268
      3 C3         24.0260    3.6410   52.1390 C.3       1 D6G         0.0882
      4 C4         25.3430    2.8390   51.9490 C.3       1 D6G         0.1098
      5 C5         26.5730    3.8370   51.7010 C.3       1 D6G         0.1174
      6 C6         27.8140    3.0880   51.2980 C.3       1 D6G         0.1071
      7 O1         25.2540    6.5610   51.7570 O.3       1 D6G        -0.3669
      8 O3         22.9590    2.7130   52.2730 O.3       1 D6G        -0.3890
      9 O4         25.5400    2.0550   53.1290 O.3       1 D6G        -0.3866
     10 O5         26.2690    4.7480   50.6160 O.3       1 D6G        -0.3430
     11 O6         28.9460    3.9110   51.4130 O.3       1 D6G        -0.2734
     12 P          30.4890    3.3820   51.3260 P.3       1 D6G         0.2008
     13 O1P        30.6510    2.4330   52.4850 O.co2     1 D6G        -0.5537
     14 O2P        31.4090    4.5450   51.5030 O.co2     1 D6G        -0.5537
     15 O3P        30.5510    2.8050   49.9090 O.co2     1 D6G        -0.5537
     16 H1         24.9069    6.1006   49.7909 H         1 D6G         0.0908
     17 H2         23.5975    4.0819   50.0516 H         1 D6G         0.0340
     18 H3         22.9336    5.2798   51.2138 H         1 D6G         0.0340
     19 H4         24.0999    4.2205   53.0711 H         1 D6G         0.0621
     20 H5         25.2465    2.1722   51.0795 H         1 D6G         0.0646
     21 H6         26.7653    4.4040   52.6238 H         1 D6G         0.0650
     22 H7         27.7130    2.7556   50.2543 H         1 D6G         0.0639
     23 H8         27.9360    2.2118   51.9517 H         1 D6G         0.0639
     24 H9         25.9889    7.1150   51.5215 H         1 D6G         0.2125
     25 H10        23.1164    2.1580   53.0277 H         1 D6G         0.2099
     26 H11        24.7975    1.4748   53.2500 H         1 D6G         0.2100
@<TRIPOS>BOND
     1    1    2 1  
     2    1    7 1  
     3    1   10 1  
     4    2    3 1  
     5    3    4 1  
     6    3    8 1  
     7    4    5 1  
     8    4    9 1  
     9    5    6 1  
    10    5   10 1  
    11    6   11 1  
    12   11   12 1  
    13   12   13 ar 
    14   12   14 ar 
    15   12   15 ar 
    16    1   16 1  
    17    2   17 1  
    18    2   18 1  
    19    3   19 1  
    20    4   20 1  
    21    5   21 1  
    22    6   22 1  
    23    6   23 1  
    24    7   24 1  
    25    8   25 1  
    26    9   26 1  
@<TRIPOS>SUBSTRUCTURE
     1 D6G         1

