### 
### Created by X-TOOL on Mon Sep 10 21:12:55 2018
### 

@<TRIPOS>MOLECULE
2ewa_ligand
   43    46     1     0     0
SMALL
GAST_HUCK


@<TRIPOS>ATOM
      1 O2         -0.3300    9.2600   24.1280 O.2       1 SB2        -0.2522
      2 C1         -1.4230   10.5410   21.8210 C.3       1 SB2         0.0165
      3 S1         -1.6730    9.4110   23.2440 S.o       1 SB2         0.0514
      4 CA1        -2.4570    5.3800   22.9950 C.ar      1 SB2        -0.0466
      5 CA2        -2.0380    6.6730   23.4850 C.ar      1 SB2        -0.0436
      6 CA3        -2.2040    7.8440   22.6250 C.ar      1 SB2         0.0399
      7 CA4        -2.7880    7.7500   21.2820 C.ar      1 SB2        -0.0436
      8 CA5        -3.2060    6.4460   20.8020 C.ar      1 SB2        -0.0466
      9 CA6        -3.0530    5.2140   21.6420 C.ar      1 SB2         0.0283
     10 NB1        -3.6120   -2.3390   22.7720 N.ar      1 SB2        -0.3062
     11 CB2        -4.0950   -1.3450   23.6270 C.ar      1 SB2         0.0035
     12 CB3        -4.1700    0.0440   23.1630 C.ar      1 SB2        -0.0343
     13 CB4        -3.7210    0.3530   21.7690 C.ar      1 SB2        -0.0056
     14 CB5        -3.2110   -0.7840   20.9120 C.ar      1 SB2        -0.0343
     15 CB6        -3.1790   -2.1190   21.4670 C.ar      1 SB2         0.0035
     16 NC1        -3.2780    2.7930   21.9870 N.2       1 SB2        -0.3058
     17 CC2        -3.4490    3.9120   21.1770 C.2       1 SB2         0.1409
     18 NC3        -4.0120    3.6940   19.9220 N.pl3     1 SB2        -0.2482
     19 CC4        -4.2270    2.2950   19.9070 C.2       1 SB2         0.0969
     20 CC5        -3.7570    1.7240   21.2200 C.2       1 SB2         0.0484
     21 CD1        -4.1230    1.7920   17.4690 C.ar      1 SB2        -0.0532
     22 CD2        -4.6410    1.1720   16.2760 C.ar      1 SB2        -0.0273
     23 CD3        -5.8550    0.3820   16.3300 C.ar      1 SB2         0.1330
     24 CD4        -6.5790    0.2000   17.6010 C.ar      1 SB2        -0.0273
     25 CD5        -6.0610    0.8240   18.8110 C.ar      1 SB2        -0.0532
     26 CD6        -4.8050    1.6420   18.7620 C.ar      1 SB2         0.0071
     27 FD3        -6.2980   -0.1800   15.1720 F         1 SB2        -0.1828
     28 H1         -2.3571   10.6176   21.2451 H         1 SB2         0.0369
     29 H2         -0.6253   10.1460   21.1748 H         1 SB2         0.0369
     30 H3         -1.1368   11.5371   22.1896 H         1 SB2         0.0369
     31 H4         -2.3341    4.5093   23.6289 H         1 SB2         0.0641
     32 H5         -1.6073    6.7735   24.4747 H         1 SB2         0.0633
     33 H6         -2.9042    8.6329   20.6638 H         1 SB2         0.0633
     34 H7         -3.6394    6.3607   19.8121 H         1 SB2         0.0641
     35 H8         -4.4136   -1.6001   24.6312 H         1 SB2         0.0801
     36 H9         -4.5414    0.8276   23.8134 H         1 SB2         0.0669
     37 H10        -2.8748   -0.6011   19.8978 H         1 SB2         0.0669
     38 H11        -2.8184   -2.9473   20.8679 H         1 SB2         0.0801
     39 H12        -4.2209    4.3825   19.1849 H         1 SB2         0.2382
     40 H13        -3.2139    2.3796   17.4117 H         1 SB2         0.0613
     41 H14        -4.1203    1.2970   15.3335 H         1 SB2         0.0606
     42 H15        -7.4867   -0.3916   17.6349 H         1 SB2         0.0606
     43 H16        -6.5857    0.6965   19.7510 H         1 SB2         0.0613
@<TRIPOS>BOND
     1    3    1 2  
     2    3    2 1  
     3    6    3 1  
     4    4    5 ar 
     5    9    4 ar 
     6    5    6 ar 
     7    7    6 ar 
     8    8    7 ar 
     9    9    8 ar 
    10   17    9 1  
    11   11   10 ar 
    12   15   10 ar 
    13   12   11 ar 
    14   13   12 ar 
    15   13   14 ar 
    16   20   13 1  
    17   14   15 ar 
    18   16   17 2  
    19   20   16 1  
    20   18   17 1  
    21   19   18 1  
    22   19   20 2  
    23   26   19 1  
    24   21   22 ar 
    25   21   26 ar 
    26   22   23 ar 
    27   23   24 ar 
    28   23   27 1  
    29   24   25 ar 
    30   25   26 ar 
    31    2   28 1  
    32    2   29 1  
    33    2   30 1  
    34    4   31 1  
    35    5   32 1  
    36    7   33 1  
    37    8   34 1  
    38   11   35 1  
    39   12   36 1  
    40   14   37 1  
    41   15   38 1  
    42   18   39 1  
    43   21   40 1  
    44   22   41 1  
    45   24   42 1  
    46   25   43 1  
@<TRIPOS>SUBSTRUCTURE
     1 SB2         1

