2ewa_ligand
  -I-interpret- 

 42 45  0  0  0  0  0  0  0  0999 V2000
   -0.3300    9.2600   24.1280 O   0  0  0  0  0
   -1.4230   10.5410   21.8210 C   0  0  0  0  0
   -1.6730    9.4110   23.2440 S   0  0  0  0  0
   -2.4570    5.3800   22.9950 C   0  0  0  0  0
   -2.0380    6.6730   23.4850 C   0  0  0  0  0
   -2.2040    7.8440   22.6250 C   0  0  0  0  0
   -2.7880    7.7500   21.2820 C   0  0  0  0  0
   -3.2060    6.4460   20.8020 C   0  0  0  0  0
   -3.0530    5.2140   21.6420 C   0  0  0  0  0
   -3.6120   -2.3390   22.7720 N   0  0  0  0  0
   -4.0950   -1.3450   23.6270 C   0  0  0  0  0
   -4.1700    0.0440   23.1630 C   0  0  0  0  0
   -3.7210    0.3530   21.7690 C   0  0  0  0  0
   -3.2110   -0.7840   20.9120 C   0  0  0  0  0
   -3.1790   -2.1190   21.4670 C   0  0  0  0  0
   -3.2780    2.7930   21.9870 N   0  0  0  0  0
   -3.4490    3.9120   21.1770 C   0  0  0  0  0
   -4.0120    3.6940   19.9220 N   0  0  0  0  0
   -4.2270    2.2950   19.9070 C   0  0  0  0  0
   -3.7570    1.7240   21.2200 C   0  0  0  0  0
   -4.1230    1.7920   17.4690 C   0  0  0  0  0
   -4.6410    1.1720   16.2760 C   0  0  0  0  0
   -5.8550    0.3820   16.3300 C   0  0  0  0  0
   -6.5790    0.2000   17.6010 C   0  0  0  0  0
   -6.0610    0.8240   18.8110 C   0  0  0  0  0
   -4.8050    1.6420   18.7620 C   0  0  0  0  0
   -6.2980   -0.1800   15.1720 F   0  0  0  0  0
   -1.1395   11.5276   22.1876 H   0  0  0  0  0
   -0.6323   10.1485   21.1816 H   0  0  0  0  0
   -2.3492   10.6161   21.2512 H   0  0  0  0  0
   -2.3334    4.5045   23.6324 H   0  0  0  0  0
   -1.6049    6.7740   24.4802 H   0  0  0  0  0
   -2.9049    8.6377   20.6604 H   0  0  0  0  0
   -3.6418    6.3603   19.8066 H   0  0  0  0  0
   -4.4154   -1.6015   24.6368 H   0  0  0  0  0
   -4.5435    0.8319   23.8170 H   0  0  0  0  0
   -2.8729   -0.6001   19.8922 H   0  0  0  0  0
   -2.8164   -2.9519   20.8646 H   0  0  0  0  0
   -3.2089    2.3829   17.4114 H   0  0  0  0  0
   -4.1174    1.2977   15.3283 H   0  0  0  0  0
   -7.4917   -0.3948   17.6350 H   0  0  0  0  0
   -6.5886    0.6958   19.7562 H   0  0  0  0  0
  3  1  2  0  0  0
  3  2  1  0  0  0
  6  3  1  0  0  0
  4  5  4  0  0  0
  9  4  4  0  0  0
  5  6  4  0  0  0
  7  6  4  0  0  0
  8  7  4  0  0  0
  9  8  4  0  0  0
 17  9  1  0  0  0
 11 10  4  0  0  0
 15 10  4  0  0  0
 12 11  4  0  0  0
 13 12  4  0  0  0
 13 14  4  0  0  0
 20 13  1  0  0  0
 14 15  4  0  0  0
 16 17  4  0  0  0
 20 16  4  0  0  0
 18 17  4  0  0  0
 19 18  4  0  0  0
 19 20  4  0  0  0
 26 19  1  0  0  0
 21 22  4  0  0  0
 21 26  4  0  0  0
 22 23  4  0  0  0
 23 24  4  0  0  0
 23 27  1  0  0  0
 24 25  4  0  0  0
 25 26  4  0  0  0
  2 28  1  0  0  0
  2 29  1  0  0  0
  2 30  1  0  0  0
  4 31  1  0  0  0
  5 32  1  0  0  0
  7 33  1  0  0  0
  8 34  1  0  0  0
 11 35  1  0  0  0
 12 36  1  0  0  0
 14 37  1  0  0  0
 15 38  1  0  0  0
 21 39  1  0  0  0
 22 40  1  0  0  0
 24 41  1  0  0  0
 25 42  1  0  0  0
M  END
$$$$
