3p9m_ligand
  -I-interpret- 

137137  0  0  0  0  0  0  0  0999 V2000
    2.5380   -3.3740   -4.1640 N   0  3  0  0  0
    1.2930   -2.8090   -4.6580 C   0  0  0  0  0
    1.4450   -1.2930   -4.7820 C   0  0  0  0  0
    1.8790   -0.6160   -3.8390 O   0  0  0  0  0
    0.1270   -3.1580   -3.7180 C   0  0  0  0  0
   -1.1170   -2.8510   -4.3300 O   0  0  0  0  0
    1.1110   -0.7570   -5.9490 N   0  0  0  0  0
    1.2420    0.6770   -6.1720 C   0  0  0  0  0
    0.1010    1.4380   -5.4780 C   0  0  0  0  0
   -0.9930    0.9090   -5.3040 O   0  0  0  0  0
    1.2590    0.9800   -7.6790 C   0  0  0  0  0
    1.7670    2.3900   -7.9670 C   0  0  0  0  0
   -0.1150    0.7970   -8.2730 C   0  0  0  0  0
    2.0040    2.6320   -9.4820 C   0  0  0  0  0
    0.3690    2.6800   -5.0810 N   0  0  0  0  0
   -0.6490    3.5320   -4.4780 C   0  0  0  0  0
   -1.7430    3.8660   -5.4900 C   0  0  0  0  0
   -1.5520    3.7180   -6.6940 O   0  0  0  0  0
   -0.0260    4.8360   -3.9250 C   0  0  0  0  0
   -0.9850    5.5350   -2.9540 C   0  0  0  0  0
    0.3890    5.7780   -5.0660 C   0  0  0  0  0
   -0.3070    6.6330   -2.1050 C   0  0  0  0  0
   -2.9040    4.2790   -4.9960 N   0  0  0  0  0
   -3.9520    4.8080   -5.8530 C   0  0  0  0  0
   -3.6780    6.2910   -5.9560 C   0  0  0  0  0
   -3.5190    6.9600   -4.9350 O   0  0  0  0  0
   -3.5920    6.8150   -7.1720 N   0  0  0  0  0
   -3.2180    8.2170   -7.3380 C   0  0  0  0  0
   -4.3980    9.1930   -7.1930 C   0  0  0  0  0
   -5.5520    8.8380   -7.4370 O   0  0  0  0  0
   -2.4570    8.4230   -8.6590 C   0  0  0  0  0
   -1.1560    7.6810   -8.7130 C   0  0  0  0  0
   -0.0110    8.2260   -8.1600 C   0  0  0  0  0
   -1.0830    6.4290   -9.2860 C   0  0  0  0  0
    1.1870    7.5300   -8.1910 C   0  0  0  0  0
    0.1140    5.7330   -9.3230 C   0  0  0  0  0
    1.2460    6.2910   -8.7730 C   0  0  0  0  0
   -4.0920   10.4130   -6.7580 N   0  0  0  0  0
   -5.0900   11.4740   -6.6220 C   0  0  0  0  0
   -4.8830   12.5310   -7.7010 C   0  0  0  0  0
   -3.7570   12.7910   -8.1030 O   0  0  0  0  0
   -4.9870   12.1350   -5.2500 C   0  0  0  0  0
   -5.5150   11.2830   -4.1200 C   0  0  0  0  0
   -7.0230   11.0890   -4.2130 C   0  0  0  0  0
   -7.4940    9.9350   -4.1100 O   0  0  0  0  0
   -7.7330   12.1000   -4.3950 O   0  0  0  0  0
   -5.9740   13.1530   -8.1400 N   0  0  0  0  0
   -5.9310   14.1030   -9.2460 C   0  0  0  0  0
   -5.0770   15.3510   -9.0230 C   0  0  0  0  0
   -4.9590   15.8530   -7.9070 O   0  0  0  0  0
   -7.3460   14.4570   -9.6990 C   0  0  0  0  0
   -7.9830   13.2950  -10.4650 C   0  0  0  0  0
   -9.4090   13.5590  -10.8650 C   0  0  0  0  0
  -10.0230   12.2900  -11.4120 C   0  0  0  0  0
   -9.8940   11.1870  -10.4100 N   0  3  0  0  0
   -4.4860   15.8280  -10.1160 N   0  0  0  0  0
   -3.5900   16.9790  -10.1180 C   0  0  0  0  0
   -4.3830   18.2730  -10.1830 C   0  0  0  0  0
   -5.5140   18.2580  -10.6600 O   0  0  0  0  0
   -2.6740   16.9300  -11.3520 C   0  0  0  0  0
   -1.6360   15.8130  -11.3790 C   0  0  0  0  0
   -0.7520   15.9560  -12.5950 C   0  0  0  0  0
   -0.8130   15.8460  -10.1050 C   0  0  0  0  0
   -3.8880   19.3440   -9.8150 O   0  0  0  0  0
    3.2966   -3.1310   -4.8010 H   0  0  0  0  0
    2.7368   -2.9973   -3.2372 H   0  0  0  0  0
    2.4510   -4.3888   -4.1084 H   0  0  0  0  0
    1.0705   -3.2325   -5.6374 H   0  0  0  0  0
    0.2241   -2.5741   -2.8027 H   0  0  0  0  0
    0.1584   -4.2249   -3.4972 H   0  0  0  0  0
   -1.8317   -3.0751   -3.7295 H   0  0  0  0  0
    0.7592   -1.3545   -6.6971 H   0  0  0  0  0
    2.1851    1.0123   -5.7404 H   0  0  0  0  0
    1.9469    0.2733   -8.1432 H   0  0  0  0  0
    2.7183    2.5190   -7.4508 H   0  0  0  0  0
    1.0121    3.0981   -7.6252 H   0  0  0  0  0
   -0.4401   -0.2325   -8.1229 H   0  0  0  0  0
   -0.8142    1.4752   -7.7838 H   0  0  0  0  0
   -0.0803    1.0165   -9.3401 H   0  0  0  0  0
    2.7457    1.9232   -9.8502 H   0  0  0  0  0
    1.0673    2.4929  -10.0218 H   0  0  0  0  0
    2.3648    3.6493   -9.6341 H   0  0  0  0  0
    1.3133    3.0460   -5.2021 H   0  0  0  0  0
   -1.0927    2.9815   -3.6485 H   0  0  0  0  0
    0.8736    4.5676   -3.3712 H   0  0  0  0  0
   -1.3669    4.7787   -2.2683 H   0  0  0  0  0
   -1.7633    6.0134   -3.5486 H   0  0  0  0  0
    1.1247    5.2798   -5.6973 H   0  0  0  0  0
   -0.4877    6.0346   -5.6607 H   0  0  0  0  0
    0.8233    6.6854   -4.6465 H   0  0  0  0  0
    0.4937    6.1900   -1.5128 H   0  0  0  0  0
    0.1064    7.3966   -2.7639 H   0  0  0  0  0
   -1.0444    7.0845   -1.4413 H   0  0  0  0  0
   -3.0645    4.2237   -3.9902 H   0  0  0  0  0
   -4.9420    4.6121   -5.4412 H   0  0  0  0  0
   -3.9455    4.3313   -6.8332 H   0  0  0  0  0
   -3.7871    6.2387   -7.9907 H   0  0  0  0  0
   -2.5481    8.4598   -6.5132 H   0  0  0  0  0
   -2.2348    9.4862   -8.7498 H   0  0  0  0  0
   -3.0862    8.0454   -9.4650 H   0  0  0  0  0
   -0.0515    9.2114   -7.6959 H   0  0  0  0  0
   -1.9791    5.9810   -9.7155 H   0  0  0  0  0
    2.0831    7.9686   -7.7520 H   0  0  0  0  0
    0.1595    4.7472   -9.7858 H   0  0  0  0  0
    2.1900    5.7467   -8.8006 H   0  0  0  0  0
   -3.1238   10.6162   -6.5097 H   0  0  0  0  0
   -6.0779   11.0265   -6.7315 H   0  0  0  0  0
   -5.5897   13.0427   -5.2810 H   0  0  0  0  0
   -3.9297   12.3142   -5.0547 H   0  0  0  0  0
   -5.2922   11.7862   -3.1791 H   0  0  0  0  0
   -5.0398   10.3038   -4.1789 H   0  0  0  0  0
   -6.7785    9.3094   -3.9748 H   0  0  0  0  0
   -6.8683   12.9596   -7.6892 H   0  0  0  0  0
   -5.4076   13.5800  -10.0464 H   0  0  0  0  0
   -7.2959   15.3243  -10.3573 H   0  0  0  0  0
   -7.9523   14.6698   -8.8185 H   0  0  0  0  0
   -7.9801   12.4254   -9.8078 H   0  0  0  0  0
   -7.4063   13.1458  -11.3778 H   0  0  0  0  0
   -9.4337   14.3339  -11.6312 H   0  0  0  0  0
   -9.9750   13.8902   -9.9943 H   0  0  0  0  0
   -9.5040   12.0058  -12.3274 H   0  0  0  0  0
  -11.0786   12.4633  -11.6211 H   0  0  0  0  0
  -10.3106   10.3359  -10.7875 H   0  0  0  0  0
   -8.9070   11.0243  -10.2104 H   0  0  0  0  0
  -10.3767   11.4513   -9.5512 H   0  0  0  0  0
   -4.6704   15.3614  -11.0041 H   0  0  0  0  0
   -3.0024   16.9454   -9.2006 H   0  0  0  0  0
   -2.1138   17.8650  -11.3515 H   0  0  0  0  0
   -3.3267   16.7586  -12.2080 H   0  0  0  0  0
   -2.1433   14.8501  -11.4383 H   0  0  0  0  0
   -1.3633   15.8992  -13.4957 H   0  0  0  0  0
   -0.2419   16.9187  -12.5606 H   0  0  0  0  0
   -0.0150   15.1530  -12.6033 H   0  0  0  0  0
   -0.3065   16.8079  -10.0260 H   0  0  0  0  0
   -1.4697   15.7081   -9.2461 H   0  0  0  0  0
   -0.0735   15.0456  -10.1308 H   0  0  0  0  0
   -3.0067   19.1857   -9.4688 H   0  0  0  0  0
  1  2  1  0  0  0
  2  3  1  0  0  0
  2  5  1  0  0  0
  3  4  2  0  0  0
  3  7  1  0  0  0
  5  6  1  0  0  0
  7  8  1  0  0  0
  8  9  1  0  0  0
  8 11  1  0  0  0
  9 10  2  0  0  0
  9 15  1  0  0  0
 11 12  1  0  0  0
 11 13  1  0  0  0
 12 14  1  0  0  0
 15 16  1  0  0  0
 16 17  1  0  0  0
 16 19  1  0  0  0
 17 18  2  0  0  0
 17 23  1  0  0  0
 19 20  1  0  0  0
 19 21  1  0  0  0
 20 22  1  0  0  0
 23 24  1  0  0  0
 24 25  1  0  0  0
 25 26  2  0  0  0
 25 27  1  0  0  0
 27 28  1  0  0  0
 28 29  1  0  0  0
 28 31  1  0  0  0
 29 30  2  0  0  0
 29 38  1  0  0  0
 31 32  1  0  0  0
 32 33  4  0  0  0
 32 34  4  0  0  0
 33 35  4  0  0  0
 34 36  4  0  0  0
 35 37  4  0  0  0
 36 37  4  0  0  0
 38 39  1  0  0  0
 39 40  1  0  0  0
 39 42  1  0  0  0
 40 41  2  0  0  0
 40 47  1  0  0  0
 42 43  1  0  0  0
 43 44  1  0  0  0
 44 45  1  0  0  0
 44 46  2  0  0  0
 47 48  1  0  0  0
 48 49  1  0  0  0
 48 51  1  0  0  0
 49 50  2  0  0  0
 49 56  1  0  0  0
 51 52  1  0  0  0
 52 53  1  0  0  0
 53 54  1  0  0  0
 54 55  1  0  0  0
 56 57  1  0  0  0
 57 58  1  0  0  0
 57 60  1  0  0  0
 58 59  2  0  0  0
 58 64  1  0  0  0
 60 61  1  0  0  0
 61 62  1  0  0  0
 61 63  1  0  0  0
  1 65  1  0  0  0
  1 66  1  0  0  0
  1 67  1  0  0  0
  2 68  1  0  0  0
  5 69  1  0  0  0
  5 70  1  0  0  0
  6 71  1  0  0  0
  7 72  1  0  0  0
  8 73  1  0  0  0
 11 74  1  0  0  0
 12 75  1  0  0  0
 12 76  1  0  0  0
 13 77  1  0  0  0
 13 78  1  0  0  0
 13 79  1  0  0  0
 14 80  1  0  0  0
 14 81  1  0  0  0
 14 82  1  0  0  0
 15 83  1  0  0  0
 16 84  1  0  0  0
 19 85  1  0  0  0
 20 86  1  0  0  0
 20 87  1  0  0  0
 21 88  1  0  0  0
 21 89  1  0  0  0
 21 90  1  0  0  0
 22 91  1  0  0  0
 22 92  1  0  0  0
 22 93  1  0  0  0
 23 94  1  0  0  0
 24 95  1  0  0  0
 24 96  1  0  0  0
 27 97  1  0  0  0
 28 98  1  0  0  0
 31 99  1  0  0  0
 31100  1  0  0  0
 33101  1  0  0  0
 34102  1  0  0  0
 35103  1  0  0  0
 36104  1  0  0  0
 37105  1  0  0  0
 38106  1  0  0  0
 39107  1  0  0  0
 42108  1  0  0  0
 42109  1  0  0  0
 43110  1  0  0  0
 43111  1  0  0  0
 45112  1  0  0  0
 47113  1  0  0  0
 48114  1  0  0  0
 51115  1  0  0  0
 51116  1  0  0  0
 52117  1  0  0  0
 52118  1  0  0  0
 53119  1  0  0  0
 53120  1  0  0  0
 54121  1  0  0  0
 54122  1  0  0  0
 55123  1  0  0  0
 55124  1  0  0  0
 55125  1  0  0  0
 56126  1  0  0  0
 57127  1  0  0  0
 60128  1  0  0  0
 60129  1  0  0  0
 61130  1  0  0  0
 62131  1  0  0  0
 62132  1  0  0  0
 62133  1  0  0  0
 63134  1  0  0  0
 63135  1  0  0  0
 63136  1  0  0  0
 64137  1  0  0  0
M  END
$$$$
