### 
### Created by X-TOOL on Mon Sep 10 21:13:06 2018
### 

@<TRIPOS>MOLECULE
3p9m_ligand
  135   135     1     0     0
SMALL
GAST_HUCK


@<TRIPOS>ATOM
      1 N           2.5380   -3.3740   -4.1640 N.4       1 SER         0.2396
      2 CA          1.2930   -2.8090   -4.6580 C.3       1 SER         0.0885
      3 C           1.4450   -1.2930   -4.7820 C.2       1 SER         0.2290
      4 O           1.8790   -0.6160   -3.8390 O.2       1 SER        -0.3906
      5 CB          0.1270   -3.1580   -3.7180 C.3       1 SER         0.1041
      6 OG         -1.1170   -2.8510   -4.3300 O.3       1 SER        -0.3870
      7 N           1.1110   -0.7570   -5.9490 N.am      1 ILE        -0.2607
      8 CA          1.2420    0.6770   -6.1720 C.3       1 ILE         0.1336
      9 C           0.1010    1.4380   -5.4780 C.2       1 ILE         0.2042
     10 O          -0.9930    0.9090   -5.3040 O.2       1 ILE        -0.3944
     11 CB          1.2590    0.9800   -7.6790 C.3       1 ILE        -0.0037
     12 CG1         1.7670    2.3900   -7.9670 C.3       1 ILE        -0.0491
     13 CG2        -0.1150    0.7970   -8.2730 C.3       1 ILE        -0.0582
     14 CD1         2.0040    2.6320   -9.4820 C.3       1 ILE        -0.0648
     15 N           0.3690    2.6800   -5.0810 N.am      1 ILE        -0.2635
     16 CA         -0.6490    3.5320   -4.4780 C.3       1 ILE         0.1335
     17 C          -1.7430    3.8660   -5.4900 C.2       1 ILE         0.2040
     18 O          -1.5520    3.7180   -6.6940 O.2       1 ILE        -0.3944
     19 CB         -0.0260    4.8360   -3.9250 C.3       1 ILE        -0.0037
     20 CG1        -0.9850    5.5350   -2.9540 C.3       1 ILE        -0.0491
     21 CG2         0.3890    5.7780   -5.0660 C.3       1 ILE        -0.0582
     22 CD1        -0.3070    6.6330   -2.1050 C.3       1 ILE        -0.0648
     23 N          -2.9040    4.2790   -4.9960 N.am      1 GLY        -0.2664
     24 CA         -3.9520    4.8080   -5.8530 C.3       1 GLY         0.1201
     25 C          -3.6780    6.2910   -5.9560 C.2       1 GLY         0.2009
     26 O          -3.5190    6.9600   -4.9350 O.2       1 GLY        -0.3947
     27 N          -3.5920    6.8150   -7.1720 N.am      1 PHE        -0.2622
     28 CA         -3.2180    8.2170   -7.3380 C.3       1 PHE         0.1404
     29 C          -4.3980    9.1930   -7.1930 C.2       1 PHE         0.2060
     30 O          -5.5520    8.8380   -7.4370 O.2       1 PHE        -0.3942
     31 CB         -2.4570    8.4230   -8.6590 C.3       1 PHE         0.0214
     32 CG         -1.1560    7.6810   -8.7130 C.ar      1 PHE        -0.0386
     33 CD1        -0.0110    8.2260   -8.1600 C.ar      1 PHE        -0.0601
     34 CD2        -1.0830    6.4290   -9.2860 C.ar      1 PHE        -0.0601
     35 CE1         1.1870    7.5300   -8.1910 C.ar      1 PHE        -0.0686
     36 CE2         0.1140    5.7330   -9.3230 C.ar      1 PHE        -0.0686
     37 CZ          1.2460    6.2910   -8.7730 C.ar      1 PHE        -0.0687
     38 N          -4.0920   10.4130   -6.7580 N.am      1 GLU        -0.2635
     39 CA         -5.0900   11.4740   -6.6220 C.3       1 GLU         0.1325
     40 C          -4.8830   12.5310   -7.7010 C.2       1 GLU         0.2040
     41 O          -3.7570   12.7910   -8.1030 O.2       1 GLU        -0.3944
     42 CB         -4.9870   12.1350   -5.2500 C.3       1 GLU        -0.0008
     43 CG         -5.5150   11.2830   -4.1200 C.3       1 GLU         0.0044
     44 CD         -7.0230   11.0890   -4.2130 C.2       1 GLU         0.0350
     45 OE1        -7.4940    9.9350   -4.1100 O.co2     1 GLU        -0.5690
     46 OE2        -7.7330   12.1000   -4.3950 O.co2     1 GLU        -0.5690
     47 N          -5.9740   13.1530   -8.1400 N.am      1 LYS        -0.2637
     48 CA         -5.9310   14.1030   -9.2460 C.3       1 LYS         0.1309
     49 C          -5.0770   15.3510   -9.0230 C.2       1 LYS         0.2033
     50 O          -4.9590   15.8530   -7.9070 O.2       1 LYS        -0.3944
     51 CB         -7.3460   14.4570   -9.6990 C.3       1 LYS        -0.0122
     52 CG         -7.9830   13.2950  -10.4650 C.3       1 LYS        -0.0440
     53 CD         -9.4090   13.5590  -10.8650 C.3       1 LYS        -0.0124
     54 CE        -10.0230   12.2900  -11.4120 C.3       1 LYS        -0.0354
     55 NZ         -9.8940   11.1870  -10.4100 N.4       1 LYS         0.2185
     56 N          -4.4860   15.8280  -10.1160 N.am      1 LEU        -0.2695
     57 CA         -3.5900   16.9790  -10.1180 C.3       1 LEU         0.0946
     58 C          -4.3830   18.2730  -10.1830 C.2       1 LEU         0.0601
     59 O          -5.5140   18.2580  -10.6600 O.co2     1 LEU        -0.5666
     60 CB         -2.6740   16.9300  -11.3520 C.3       1 LEU        -0.0156
     61 CG         -1.6360   15.8130  -11.3790 C.3       1 LEU        -0.0431
     62 CD1        -0.7520   15.9560  -12.5950 C.3       1 LEU        -0.0625
     63 CD2        -0.8130   15.8460  -10.1050 C.3       1 LEU        -0.0625
     64 OXT        -3.8880   19.3440   -9.8150 O.co2     1 LEU        -0.5666
     65 H1          2.4432   -4.3740   -4.0803 H         1 SER         0.2016
     66 H2          2.7509   -2.9800   -3.2610 H         1 SER         0.2016
     67 H3          3.2831   -3.1599   -4.8082 H         1 SER         0.2016
     68 H4          1.0807   -3.2291   -5.6522 H         1 SER         0.1122
     69 H5          0.2256   -2.5778   -2.7887 H         1 SER         0.0640
     70 H6          0.1597   -4.2325   -3.4847 H         1 SER         0.0640
     71 H7         -1.2065   -3.3525   -5.1318 H         1 SER         0.2099
     72 H8          0.7661   -1.3428   -6.6824 H         1 ILE         0.1885
     73 H9          2.1961    1.0116   -5.7387 H         1 ILE         0.0803
     74 H10         1.9423    0.2654   -8.1612 H         1 ILE         0.0345
     75 H11         2.7162    2.5404   -7.4319 H         1 ILE         0.0267
     76 H12         1.0232    3.1150   -7.6050 H         1 ILE         0.0267
     77 H13        -0.4734   -0.2211   -8.0610 H         1 ILE         0.0235
     78 H14        -0.0673    0.9497   -9.3613 H         1 ILE         0.0235
     79 H15        -0.8065    1.5288   -7.8299 H         1 ILE         0.0235
     80 H16         2.3682    3.6584   -9.6368 H         1 ILE         0.0230
     81 H17         1.0594    2.4919  -10.0279 H         1 ILE         0.0230
     82 H18         2.7524    1.9173   -9.8548 H         1 ILE         0.0230
     83 H19         1.2948    3.0389   -5.1997 H         1 ILE         0.1883
     84 H20        -1.1051    2.9833   -3.6408 H         1 ILE         0.0803
     85 H21         0.8815    4.5649   -3.3655 H         1 ILE         0.0345
     86 H22        -1.4054    4.7790   -2.2746 H         1 ILE         0.0267
     87 H23        -1.7962    5.9961   -3.5366 H         1 ILE         0.0267
     88 H24         1.0752    5.2510   -5.7453 H         1 ILE         0.0235
     89 H25         0.8939    6.6610   -4.6472 H         1 ILE         0.0235
     90 H26        -0.5050    6.0962   -5.6223 H         1 ILE         0.0235
     91 H27        -1.0502    7.0894   -1.4347 H         1 ILE         0.0230
     92 H28         0.1106    7.4043   -2.7688 H         1 ILE         0.0230
     93 H29         0.5013    6.1872   -1.5068 H         1 ILE         0.0230
     94 H30        -3.0614    4.2248   -4.0099 H         1 GLY         0.1881
     95 H31        -4.9411    4.6298   -5.4058 H         1 GLY         0.0763
     96 H32        -3.9092    4.3391   -6.8471 H         1 GLY         0.0763
     97 H33        -3.7832    6.2500   -7.9747 H         1 PHE         0.1885
     98 H34        -2.5175    8.4546   -6.5238 H         1 PHE         0.0823
     99 H35        -2.2522    9.4969   -8.7807 H         1 PHE         0.0474
    100 H36        -3.0926    8.0748   -9.4865 H         1 PHE         0.0474
    101 H37        -0.0512    9.2060   -7.6984 H         1 PHE         0.0557
    102 H38        -1.9741    5.9835   -9.7132 H         1 PHE         0.0557
    103 H39         2.0782    7.9662   -7.7544 H         1 PHE         0.0599
    104 H40         0.1593    4.7526   -9.7833 H         1 PHE         0.0599
    105 H41         2.1848    5.7497   -8.8004 H         1 PHE         0.0559
    106 H42        -3.1428   10.6122   -6.5146 H         1 GLU         0.1883
    107 H43        -6.0924   11.0352   -6.7347 H         1 GLU         0.0801
    108 H44        -5.5604   13.0734   -5.2735 H         1 GLU         0.0330
    109 H45        -3.9282   12.3571   -5.0509 H         1 GLU         0.0330
    110 H46        -5.2776   11.7728   -3.1641 H         1 GLU         0.0433
    111 H47        -5.0266   10.2982   -4.1587 H         1 GLU         0.0433
    112 H48        -6.8508   12.9634   -7.6980 H         1 LYS         0.1883
    113 H49        -5.4576   13.5678  -10.0823 H         1 LYS         0.0800
    114 H50        -7.3039   15.3396  -10.3541 H         1 LYS         0.0312
    115 H51        -7.9602   14.6851   -8.8154 H         1 LYS         0.0312
    116 H52        -7.9593   12.4002   -9.8257 H         1 LYS         0.0269
    117 H53        -7.3931   13.1112  -11.3751 H         1 LYS         0.0269
    118 H54        -9.4341   14.3411  -11.6381 H         1 LYS         0.0317
    119 H55        -9.9802   13.8934   -9.9865 H         1 LYS         0.0317
    120 H56        -9.5033   12.0035  -12.3382 H         1 LYS         0.0813
    121 H57       -11.0876   12.4638  -11.6276 H         1 LYS         0.0813
    122 H58       -10.3054   10.3453  -10.7820 H         1 LYS         0.1994
    123 H59       -10.3708   11.4470   -9.5608 H         1 LYS         0.1994
    124 H60        -8.9190   11.0253  -10.2120 H         1 LYS         0.1994
    125 H61        -4.6668   15.3706  -10.9867 H         1 LEU         0.1875
    126 H62        -2.9809   16.9644   -9.2021 H         1 LEU         0.0726
    127 H63        -2.1367   17.8882  -11.4089 H         1 LEU         0.0308
    128 H64        -3.3134   16.8148  -12.2397 H         1 LEU         0.0308
    129 H65        -2.1571   14.8459  -11.4361 H         1 LEU         0.0297
    130 H66        -0.0077   15.1461  -12.6045 H         1 LEU         0.0232
    131 H67        -0.2366   16.9272  -12.5615 H         1 LEU         0.0232
    132 H68        -1.3677   15.8988  -13.5047 H         1 LEU         0.0232
    133 H69        -1.4786   15.7402   -9.2357 H         1 LEU         0.0232
    134 H70        -0.2751   16.8034  -10.0406 H         1 LEU         0.0232
    135 H71        -0.0886   15.0183  -10.1149 H         1 LEU         0.0232
@<TRIPOS>BOND
     1    1    2 1  
     2    2    3 1  
     3    2    5 1  
     4    3    4 2  
     5    3    7 am 
     6    5    6 1  
     7    7    8 1  
     8    8    9 1  
     9    8   11 1  
    10    9   10 2  
    11    9   15 am 
    12   11   12 1  
    13   11   13 1  
    14   12   14 1  
    15   15   16 1  
    16   16   17 1  
    17   16   19 1  
    18   17   18 2  
    19   17   23 am 
    20   19   20 1  
    21   19   21 1  
    22   20   22 1  
    23   23   24 1  
    24   24   25 1  
    25   25   26 2  
    26   25   27 am 
    27   27   28 1  
    28   28   29 1  
    29   28   31 1  
    30   29   30 2  
    31   29   38 am 
    32   31   32 1  
    33   32   33 ar 
    34   32   34 ar 
    35   33   35 ar 
    36   34   36 ar 
    37   35   37 ar 
    38   36   37 ar 
    39   38   39 1  
    40   39   40 1  
    41   39   42 1  
    42   40   41 2  
    43   40   47 am 
    44   42   43 1  
    45   43   44 1  
    46   44   45 ar 
    47   44   46 ar 
    48   47   48 1  
    49   48   49 1  
    50   48   51 1  
    51   49   50 2  
    52   49   56 am 
    53   51   52 1  
    54   52   53 1  
    55   53   54 1  
    56   54   55 1  
    57   56   57 1  
    58   57   58 1  
    59   57   60 1  
    60   58   59 ar 
    61   58   64 ar 
    62   60   61 1  
    63   61   62 1  
    64   61   63 1  
    65    1   65 1  
    66    1   66 1  
    67    1   67 1  
    68    2   68 1  
    69    5   69 1  
    70    5   70 1  
    71    6   71 1  
    72    7   72 1  
    73    8   73 1  
    74   11   74 1  
    75   12   75 1  
    76   12   76 1  
    77   13   77 1  
    78   13   78 1  
    79   13   79 1  
    80   14   80 1  
    81   14   81 1  
    82   14   82 1  
    83   15   83 1  
    84   16   84 1  
    85   19   85 1  
    86   20   86 1  
    87   20   87 1  
    88   21   88 1  
    89   21   89 1  
    90   21   90 1  
    91   22   91 1  
    92   22   92 1  
    93   22   93 1  
    94   23   94 1  
    95   24   95 1  
    96   24   96 1  
    97   27   97 1  
    98   28   98 1  
    99   31   99 1  
   100   31  100 1  
   101   33  101 1  
   102   34  102 1  
   103   35  103 1  
   104   36  104 1  
   105   37  105 1  
   106   38  106 1  
   107   39  107 1  
   108   42  108 1  
   109   42  109 1  
   110   43  110 1  
   111   43  111 1  
   112   47  112 1  
   113   48  113 1  
   114   51  114 1  
   115   51  115 1  
   116   52  116 1  
   117   52  117 1  
   118   53  118 1  
   119   53  119 1  
   120   54  120 1  
   121   54  121 1  
   122   55  122 1  
   123   55  123 1  
   124   55  124 1  
   125   56  125 1  
   126   57  126 1  
   127   60  127 1  
   128   60  128 1  
   129   61  129 1  
   130   62  130 1  
   131   62  131 1  
   132   62  132 1  
   133   63  133 1  
   134   63  134 1  
   135   63  135 1  
@<TRIPOS>SUBSTRUCTURE
     1 SER         1

