6ql1_ligand
  -I-interpret- 

 32 33  0  0  0  0  0  0  0  0999 V2000
   14.8010    5.4810   16.2080 F   0  0  0  0  0
   15.4390    4.8750   15.2110 C   0  0  0  0  0
   15.8000    3.5290   15.3610 C   0  0  0  0  0
   15.3060    2.6390   16.7990 S   0  0  0  0  0
   13.8680    2.8120   16.8380 O   0  0  0  0  0
   15.5310    1.0730   16.5870 N   0  0  0  0  0
   16.0320    3.1550   17.9120 O   0  0  0  0  0
   16.5110    2.9470   14.2780 C   0  0  0  0  0
   16.8680    1.6850   14.2370 F   0  0  0  0  0
   16.8250    3.6610   13.1420 C   0  0  0  0  0
   17.4910    3.0610   12.1510 F   0  0  0  0  0
   15.8160    5.5720   14.0610 C   0  0  0  0  0
   15.4490    6.8350   13.8460 F   0  0  0  0  0
   16.4260    4.9600   13.0200 C   0  0  0  0  0
   16.8190    5.8220   11.5320 S   0  0  0  0  0
   17.4790    7.3650   12.0730 C   0  0  0  0  0
   17.1640    8.3270   11.2300 N   0  0  0  0  0
   17.6780    9.5420   11.5240 C   0  0  0  0  0
   17.3300   10.6650   10.6010 C   0  0  0  0  0
   18.4250    9.8350   12.6130 C   0  0  0  0  0
   18.7030    8.7600   13.3750 C   0  0  0  0  0
   18.2670    7.4960   13.1350 N   0  0  0  0  0
   19.5470    8.9950   14.5910 C   0  0  0  0  0
   14.7284    0.4480   16.5122 H   0  0  0  0  0
   16.4774    0.6973   16.5263 H   0  0  0  0  0
   17.6832   10.4309    9.5967 H   0  0  0  0  0
   16.2483   10.7987   10.5852 H   0  0  0  0  0
   17.8056   11.5814   10.9504 H   0  0  0  0  0
   18.7681   10.8420   12.8504 H   0  0  0  0  0
   20.5123    9.4012   14.2888 H   0  0  0  0  0
   19.0437    9.7027   15.2498 H   0  0  0  0  0
   19.6967    8.0514   15.1157 H   0  0  0  0  0
  1  2  1  0  0  0
  2  3  4  0  0  0
  2 12  4  0  0  0
  3  4  1  0  0  0
  3  8  4  0  0  0
  4  5  2  0  0  0
  4  6  1  0  0  0
  4  7  2  0  0  0
  8  9  1  0  0  0
  8 10  4  0  0  0
 10 11  1  0  0  0
 10 14  4  0  0  0
 12 13  1  0  0  0
 12 14  4  0  0  0
 14 15  1  0  0  0
 15 16  1  0  0  0
 16 17  4  0  0  0
 16 22  4  0  0  0
 17 18  4  0  0  0
 18 19  1  0  0  0
 18 20  4  0  0  0
 20 21  4  0  0  0
 21 22  4  0  0  0
 21 23  1  0  0  0
  6 24  1  0  0  0
  6 25  1  0  0  0
 19 26  1  0  0  0
 19 27  1  0  0  0
 19 28  1  0  0  0
 20 29  1  0  0  0
 23 30  1  0  0  0
 23 31  1  0  0  0
 23 32  1  0  0  0
M  END
$$$$
