### 
### Created by X-TOOL on Mon Aug  2 16:16:32 2021
### 

@<TRIPOS>MOLECULE
6ql1_ligand
   32    33     1     0     0
SMALL
GAST_HUCK


@<TRIPOS>ATOM
      1 F13        14.8010    5.4810   16.2080 F         1 V50        -0.1883
      2 C4         15.4390    4.8750   15.2110 C.ar      1 V50         0.1808
      3 C5         15.8000    3.5290   15.3610 C.ar      1 V50         0.1647
      4 S7         15.3060    2.6390   16.7990 S.o2      1 V50         0.0629
      5 O9         13.8680    2.8120   16.8380 O.2       1 V50        -0.1526
      6 N23        15.5310    1.0730   16.5870 N.am      1 V50        -0.2626
      7 O8         16.0320    3.1550   17.9120 O.2       1 V50        -0.1526
      8 C6         16.5110    2.9470   14.2780 C.ar      1 V50         0.1808
      9 F11        16.8680    1.6850   14.2370 F         1 V50        -0.1883
     10 C1         16.8250    3.6610   13.1420 C.ar      1 V50         0.1755
     11 F10        17.4910    3.0610   12.1510 F         1 V50        -0.1929
     12 C3         15.8160    5.5720   14.0610 C.ar      1 V50         0.1755
     13 F12        15.4490    6.8350   13.8460 F         1 V50        -0.1929
     14 C2         16.4260    4.9600   13.0200 C.ar      1 V50         0.1008
     15 S14        16.8190    5.8220   11.5320 S.3       1 V50        -0.0038
     16 C15        17.4790    7.3650   12.0730 C.ar      1 V50         0.1600
     17 N20        17.1640    8.3270   11.2300 N.ar      1 V50        -0.2646
     18 C19        17.6780    9.5420   11.5240 C.ar      1 V50         0.0269
     19 C21        17.3300   10.6650   10.6010 C.3       1 V50        -0.0129
     20 C18        18.4250    9.8350   12.6130 C.ar      1 V50        -0.0161
     21 C17        18.7030    8.7600   13.3750 C.ar      1 V50         0.0269
     22 N16        18.2670    7.4960   13.1350 N.ar      1 V50        -0.2646
     23 C22        19.5470    8.9950   14.5910 C.3       1 V50        -0.0129
     24 H1         15.2972    0.4309   17.3171 H         1 V50         0.1633
     25 H2         15.9057    0.7340   15.7241 H         1 V50         0.1633
     26 H3         17.8094   11.5905   10.9526 H         1 V50         0.0441
     27 H4         16.2386   10.8010   10.5842 H         1 V50         0.0441
     28 H5         17.6859   10.4300    9.5871 H         1 V50         0.0441
     29 H6         18.7662   10.8365   12.8491 H         1 V50         0.0591
     30 H7         19.6988    8.0434   15.1214 H         1 V50         0.0441
     31 H8         19.0402    9.7090   15.2568 H         1 V50         0.0441
     32 H9         20.5215    9.4050   14.2873 H         1 V50         0.0441
@<TRIPOS>BOND
     1    1    2 1  
     2    2    3 ar 
     3    2   12 ar 
     4    3    4 1  
     5    3    8 ar 
     6    4    5 2  
     7    4    6 am 
     8    4    7 2  
     9    8    9 1  
    10    8   10 ar 
    11   10   11 1  
    12   10   14 ar 
    13   12   13 1  
    14   12   14 ar 
    15   14   15 1  
    16   15   16 1  
    17   16   17 ar 
    18   16   22 ar 
    19   17   18 ar 
    20   18   19 1  
    21   18   20 ar 
    22   20   21 ar 
    23   21   22 ar 
    24   21   23 1  
    25    6   24 1  
    26    6   25 1  
    27   19   26 1  
    28   19   27 1  
    29   19   28 1  
    30   20   29 1  
    31   23   30 1  
    32   23   31 1  
    33   23   32 1  
@<TRIPOS>SUBSTRUCTURE
     1 V50         1

