### 
### Created by X-TOOL on Wed Jan  1 15:39:35 2020
### 

@<TRIPOS>MOLECULE
6ebe_ligand
   39    40     1     0     0
SMALL
GAST_HUCK


@<TRIPOS>ATOM
      1 C13        -2.2860    8.9400   12.4050 C.ar      1 J3V        -0.0040
      2 C15        -1.0410   10.0230   14.1410 C.ar      1 J3V         0.0211
      3 C17        -2.2500    7.9970   14.6260 C.ar      1 J3V        -0.0040
      4 C01        -4.9870    0.6770   13.6690 C.ar      1 J3V         0.0871
      5 C02        -4.7330    1.0710   12.3700 C.ar      1 J3V         0.2360
      6 C03        -4.6180    2.4160   12.0810 C.ar      1 J3V         0.3495
      7 C04        -4.7670    3.3420   13.1000 C.ar      1 J3V         0.3635
      8 C05        -5.0290    2.9640   14.4130 C.ar      1 J3V         0.1405
      9 C06        -5.1430    1.6090   14.6820 C.ar      1 J3V         0.2068
     10 O07        -4.3540    2.8580   10.7740 O.3       1 J3V        -0.2226
     11 N08        -4.6130    4.7180   12.6980 N.am      1 J3V        -0.0621
     12 C09        -3.6340    5.5590   13.3400 C.2       1 J3V         0.4817
     13 N10        -3.5470    6.9060   12.8190 N.am      1 J3V        -0.1561
     14 O11        -2.9660    5.1490   14.2320 O.2       1 J3V        -0.2924
     15 C12        -2.6690    7.9520   13.3030 C.ar      1 J3V         0.1149
     16 C14        -1.4680    9.9720   12.8220 C.ar      1 J3V        -0.0437
     17 C16        -1.4270    9.0360   15.0430 C.ar      1 J3V        -0.0437
     18 S18        -5.4940    0.9490   16.3370 S.o2      1 J3V         0.0921
     19 O19        -6.8800    1.1850   16.7390 O.2       1 J3V        -0.1457
     20 O20        -4.6760    1.5540   17.3870 O.2       1 J3V        -0.1457
     21 N21        -5.2400   -0.7270   16.2590 N.am      1 J3V        -0.2569
     22 N22        -4.5930    0.0720   11.3360 N.2       1 J3V        -0.1985
     23 O23        -4.2150   -1.0110   11.6160 O.2       1 J3V        -0.4925
     24 O24        -4.9300    0.4010   10.0170 O.2       1 J3V        -0.4925
     25 C25        -0.1250   11.1700   14.5660 C.3       1 J3V         0.3501
     26 F26         1.1480   10.6970   14.7200 F         1 J3V        -0.2442
     27 F27        -0.1450   12.1180   13.5830 F         1 J3V        -0.2442
     28 F28        -0.5550   11.7310   15.7310 F         1 J3V        -0.2442
     29 H1         -2.6289    8.9012   11.3774 H         1 J3V         0.0631
     30 H2         -2.5615    7.2300   15.3258 H         1 J3V         0.0631
     31 H3         -5.0656   -0.3792   13.8998 H         1 J3V         0.1412
     32 H4         -5.1401    3.7031   15.1981 H         1 J3V         0.1133
     33 H5         -4.2796    2.1077   10.1961 H         1 J3V         0.3158
     34 H6         -5.1883    5.0909   11.9700 H         1 J3V         0.4110
     35 H7         -4.1485    7.1364   12.0541 H         1 J3V         0.2537
     36 H8         -1.1607   10.7395   12.1209 H         1 J3V         0.0803
     37 H9         -1.0856    9.0778   16.0710 H         1 J3V         0.0803
     38 H10        -5.3790   -1.2921   17.0722 H         1 J3V         0.1638
     39 H11        -4.9514   -1.1495   15.3998 H         1 J3V         0.1638
@<TRIPOS>BOND
     1   15    1 ar 
     2    1   16 ar 
     3   16    2 ar 
     4   17    2 ar 
     5    2   25 1  
     6   15    3 ar 
     7    3   17 ar 
     8    5    4 ar 
     9    9    4 ar 
    10    6    5 ar 
    11    5   22 1  
    12    7    6 ar 
    13    6   10 1  
    14    7    8 ar 
    15   11    7 1  
    16    8    9 ar 
    17    9   18 1  
    18   12   11 am 
    19   13   12 am 
    20   12   14 2  
    21   13   15 1  
    22   18   19 2  
    23   18   20 2  
    24   18   21 am 
    25   22   23 2  
    26   22   24 2  
    27   25   26 1  
    28   25   27 1  
    29   25   28 1  
    30    1   29 1  
    31    3   30 1  
    32    4   31 1  
    33    8   32 1  
    34   10   33 1  
    35   11   34 1  
    36   13   35 1  
    37   16   36 1  
    38   17   37 1  
    39   21   38 1  
    40   21   39 1  
@<TRIPOS>SUBSTRUCTURE
     1 J3V         1

