6ebe_ligand
  -I-interpret- 

 39 40  0  0  0  0  0  0  0  0999 V2000
   -2.2860    8.9400   12.4050 C   0  0  0  0  0
   -1.0410   10.0230   14.1410 C   0  0  0  0  0
   -2.2500    7.9970   14.6260 C   0  0  0  0  0
   -4.9870    0.6770   13.6690 C   0  0  0  0  0
   -4.7330    1.0710   12.3700 C   0  0  0  0  0
   -4.6180    2.4160   12.0810 C   0  0  0  0  0
   -4.7670    3.3420   13.1000 C   0  0  0  0  0
   -5.0290    2.9640   14.4130 C   0  0  0  0  0
   -5.1430    1.6090   14.6820 C   0  0  0  0  0
   -4.3540    2.8580   10.7740 O   0  0  0  0  0
   -4.6130    4.7180   12.6980 N   0  0  0  0  0
   -3.6340    5.5590   13.3400 C   0  0  0  0  0
   -3.5470    6.9060   12.8190 N   0  0  0  0  0
   -2.9660    5.1490   14.2320 O   0  0  0  0  0
   -2.6690    7.9520   13.3030 C   0  0  0  0  0
   -1.4680    9.9720   12.8220 C   0  0  0  0  0
   -1.4270    9.0360   15.0430 C   0  0  0  0  0
   -5.4940    0.9490   16.3370 S   0  0  0  0  0
   -6.8800    1.1850   16.7390 O   0  0  0  0  0
   -4.6760    1.5540   17.3870 O   0  0  0  0  0
   -5.2400   -0.7270   16.2590 N   0  0  0  0  0
   -4.5930    0.0720   11.3360 N   0  0  0  0  0
   -4.2150   -1.0110   11.6160 O   0  0  0  0  0
   -4.9300    0.4010   10.0170 O   0  0  0  0  0
   -0.1250   11.1700   14.5660 C   0  0  0  0  0
    1.1480   10.6970   14.7200 F   0  0  0  0  0
   -0.1450   12.1180   13.5830 F   0  0  0  0  0
   -0.5550   11.7310   15.7310 F   0  0  0  0  0
   -2.6308    8.9010   11.3717 H   0  0  0  0  0
   -2.5632    7.2258   15.3297 H   0  0  0  0  0
   -5.0661   -0.3851   13.9011 H   0  0  0  0  0
   -5.1407    3.7072   15.2024 H   0  0  0  0  0
   -4.3087    3.8169   10.7647 H   0  0  0  0  0
   -5.1998    5.0984   11.9555 H   0  0  0  0  0
   -4.1605    7.1410   12.0388 H   0  0  0  0  0
   -1.1590   10.7438   12.1170 H   0  0  0  0  0
   -1.0837    9.0780   16.0767 H   0  0  0  0  0
   -6.0018   -1.3690   16.4779 H   0  0  0  0  0
   -4.3255   -1.0924   15.9932 H   0  0  0  0  0
 15  1  4  0  0  0
  1 16  4  0  0  0
 16  2  4  0  0  0
 17  2  4  0  0  0
  2 25  1  0  0  0
 15  3  4  0  0  0
  3 17  4  0  0  0
  5  4  4  0  0  0
  9  4  4  0  0  0
  6  5  4  0  0  0
  5 22  1  0  0  0
  7  6  4  0  0  0
  6 10  1  0  0  0
  7  8  4  0  0  0
 11  7  1  0  0  0
  8  9  4  0  0  0
  9 18  1  0  0  0
 12 11  1  0  0  0
 13 12  1  0  0  0
 12 14  2  0  0  0
 13 15  1  0  0  0
 18 19  2  0  0  0
 18 20  2  0  0  0
 18 21  1  0  0  0
 22 23  2  0  0  0
 22 24  2  0  0  0
 25 26  1  0  0  0
 25 27  1  0  0  0
 25 28  1  0  0  0
  1 29  1  0  0  0
  3 30  1  0  0  0
  4 31  1  0  0  0
  8 32  1  0  0  0
 10 33  1  0  0  0
 11 34  1  0  0  0
 13 35  1  0  0  0
 16 36  1  0  0  0
 17 37  1  0  0  0
 21 38  1  0  0  0
 21 39  1  0  0  0
M  END
$$$$
