### 
### Created by X-TOOL on Mon Aug  2 16:14:54 2021
### 

@<TRIPOS>MOLECULE
6mkw_ligand
   20    20     1     0     0
SMALL
GAST_HUCK


@<TRIPOS>ATOM
      1 N          18.1510   57.9520   45.3580 N.4       1 HIS         0.2337
      2 CA         18.0510   57.0310   46.5220 C.3       1 HIS         0.0342
      3 C          17.7630   57.8500   47.7910 C.2       1 HIS         0.0860
      4 O          17.6000   59.0780   47.6540 O.co2     1 HIS        -0.5642
      5 CB         19.3060   56.1260   46.6180 C.3       1 HIS         0.0292
      6 CG         20.5960   56.7730   47.0140 C.2       1 HIS        -0.0001
      7 ND1        20.9070   58.0840   46.7210 N.2       1 HIS        -0.3251
      8 CD2        21.6580   56.2900   47.6870 C.2       1 HIS         0.0292
      9 CE1        22.1060   58.3780   47.1950 C.2       1 HIS         0.0907
     10 NE2        22.5880   57.2930   47.7930 N.pl3     1 HIS        -0.2752
     11 OXT        17.6400   57.2240   48.8550 O.co2     1 HIS        -0.5642
     12 H1         18.3398   57.4193   44.5233 H         1 HIS         0.2011
     13 H2         18.8989   58.6097   45.5132 H         1 HIS         0.2011
     14 H3         17.2820   58.4510   45.2487 H         1 HIS         0.2011
     15 H4         17.1887   56.3681   46.3578 H         1 HIS         0.1042
     16 H5         19.4575   55.6669   45.6300 H         1 HIS         0.0446
     17 H6         19.0904   55.3411   47.3579 H         1 HIS         0.0446
     18 H7         21.7606   55.2791   48.0789 H         1 HIS         0.0729
     19 H8         22.6099   59.3397   47.1104 H         1 HIS         0.1199
     20 H9         23.5044   57.2181   48.2572 H         1 HIS         0.2361
@<TRIPOS>BOND
     1    1    2 1  
     2    2    3 1  
     3    2    5 1  
     4    3    4 ar 
     5    3   11 ar 
     6    5    6 1  
     7    6    7 1  
     8    6    8 2  
     9    7    9 2  
    10    8   10 1  
    11    9   10 1  
    12    1   12 1  
    13    1   13 1  
    14    1   14 1  
    15    2   15 1  
    16    5   16 1  
    17    5   17 1  
    18    8   18 1  
    19    9   19 1  
    20   10   20 1  
@<TRIPOS>SUBSTRUCTURE
     1 HIS         1

