6mkw_ligand
  -I-interpret- 

 20 20  0  0  0  0  0  0  0  0999 V2000
   18.1510   57.9520   45.3580 N   0  3  0  0  0
   18.0510   57.0310   46.5220 C   0  0  0  0  0
   17.7630   57.8500   47.7910 C   0  0  0  0  0
   17.6000   59.0780   47.6540 O   0  0  0  0  0
   19.3060   56.1260   46.6180 C   0  0  0  0  0
   20.5960   56.7730   47.0140 C   0  0  0  0  0
   20.9070   58.0840   46.7210 N   0  0  0  0  0
   21.6580   56.2900   47.6870 C   0  0  0  0  0
   22.1060   58.3780   47.1950 C   0  0  0  0  0
   22.5880   57.2930   47.7930 N   0  0  0  0  0
   17.6400   57.2240   48.8550 O   0  0  0  0  0
   17.3159   58.5361   45.3154 H   0  0  0  0  0
   18.9757   58.5429   45.4634 H   0  0  0  0  0
   18.2297   57.4062   44.4999 H   0  0  0  0  0
   17.2154   56.3427   46.3950 H   0  0  0  0  0
   17.7523   59.3196   46.7375 H   0  0  0  0  0
   19.4678   55.7412   45.6111 H   0  0  0  0  0
   19.0870   55.4032   47.4040 H   0  0  0  0  0
   21.7607   55.2782   48.0792 H   0  0  0  0  0
   22.6103   59.3406   47.1103 H   0  0  0  0  0
  1  2  1  0  0  0
  2  3  1  0  0  0
  2  5  1  0  0  0
  3  4  1  0  0  0
  3 11  2  0  0  0
  5  6  1  0  0  0
  6  7  4  0  0  0
  6  8  4  0  0  0
  7  9  4  0  0  0
  8 10  4  0  0  0
  9 10  4  0  0  0
  1 12  1  0  0  0
  1 13  1  0  0  0
  1 14  1  0  0  0
  2 15  1  0  0  0
  4 16  1  0  0  0
  5 17  1  0  0  0
  5 18  1  0  0  0
  8 19  1  0  0  0
  9 20  1  0  0  0
M  END
$$$$
