6o5t_ligand
  -I-interpret- 

 26 27  0  0  0  0  0  0  0  0999 V2000
   15.3590   -1.0030    9.0020 C   0  0  0  0  0
   16.5550   -0.3770    8.7260 C   0  0  0  0  0
   16.5540    0.9810    8.4700 C   0  0  0  0  0
   14.2000   -0.2480    9.0150 C   0  0  0  0  0
   14.2150    1.1420    8.7510 C   0  0  0  0  0
   15.3910    1.8330    8.4650 C   0  0  0  0  0
   15.2630    3.2500    8.2160 C   0  0  0  0  0
   16.3300    4.2960    7.8630 C   0  0  0  0  0
   13.9850    3.7940    8.2820 C   0  0  0  0  0
   12.8750    3.0230    8.5740 C   0  0  0  0  0
   13.0110    1.7370    8.7990 N   0  0  0  0  0
   17.3480    3.1590    5.5400 O   0  0  0  0  0
   17.3180    5.6220    5.6220 O   0  0  0  0  0
   15.2290    4.3560    5.3220 O   0  0  0  0  0
   11.8030    3.5240    8.6220 O   0  0  0  0  0
   16.5710    4.3660    6.0100 P   0  0  0  0  0
   15.3380   -2.9060    9.3680 Br  0  0  0  0  0
   18.2170    1.9060    8.0840 Br  0  0  0  0  0
   17.4862   -0.9433    8.7099 H   0  0  0  0  0
   13.2506   -0.7365    9.2343 H   0  0  0  0  0
   17.2723    4.0203    8.3365 H   0  0  0  0  0
   16.0048    5.2735    8.2190 H   0  0  0  0  0
   13.8543    4.8604    8.0980 H   0  0  0  0  0
   12.1857    1.1777    9.0147 H   0  0  0  0  0
   18.2075    3.1469    5.9674 H   0  0  0  0  0
   18.1731    5.6320    6.0582 H   0  0  0  0  0
  1  2  4  0  0  0
  1  4  4  0  0  0
  1 17  1  0  0  0
  2  3  4  0  0  0
  3  6  4  0  0  0
  3 18  1  0  0  0
  4  5  4  0  0  0
  5  6  4  0  0  0
  5 11  1  0  0  0
  6  7  1  0  0  0
  7  8  1  0  0  0
  7  9  2  0  0  0
  8 16  1  0  0  0
  9 10  1  0  0  0
 10 11  1  0  0  0
 10 15  2  0  0  0
 16 12  1  0  0  0
 16 13  1  0  0  0
 16 14  2  0  0  0
  2 19  1  0  0  0
  4 20  1  0  0  0
  8 21  1  0  0  0
  8 22  1  0  0  0
  9 23  1  0  0  0
 11 24  1  0  0  0
 12 25  1  0  0  0
 13 26  1  0  0  0
M  END
$$$$
