### 
### Created by X-TOOL on Mon Aug  2 16:15:32 2021
### 

@<TRIPOS>MOLECULE
6o5t_ligand
   24    25     1     0     0
SMALL
GAST_HUCK


@<TRIPOS>ATOM
      1 C02        15.3590   -1.0030    9.0020 C.ar      1 L8J         0.0080
      2 C03        16.5550   -0.3770    8.7260 C.ar      1 L8J        -0.0524
      3 C04        16.5540    0.9810    8.4700 C.ar      1 L8J         0.0172
      4 C06        14.2000   -0.2480    9.0150 C.ar      1 L8J        -0.0197
      5 C07        14.2150    1.1420    8.7510 C.ar      1 L8J         0.0937
      6 C08        15.3910    1.8330    8.4650 C.ar      1 L8J         0.0311
      7 C09        15.2630    3.2500    8.2160 C.2       1 L8J        -0.0087
      8 C10        16.3300    4.2960    7.8630 C.3       1 L8J         0.0586
      9 C15        13.9850    3.7940    8.2820 C.2       1 L8J         0.0028
     10 C16        12.8750    3.0230    8.5740 C.2       1 L8J         0.1939
     11 N18        13.0110    1.7370    8.7990 N.am      1 L8J        -0.2307
     12 O12        17.3480    3.1590    5.5400 O.co2     1 L8J        -0.5604
     13 O13        17.3180    5.6220    5.6220 O.co2     1 L8J        -0.5604
     14 O14        15.2290    4.3560    5.3220 O.co2     1 L8J        -0.5604
     15 O17        11.8030    3.5240    8.6220 O.2       1 L8J        -0.4119
     16 P11        16.5710    4.3660    6.0100 P.3       1 L8J         0.0727
     17 BR01       15.3380   -2.9060    9.3680 Br        1 L8J        -0.0495
     18 BR05       18.2170    1.9060    8.0840 Br        1 L8J        -0.0494
     19 H1         17.4811   -0.9402    8.7099 H         1 L8J         0.0565
     20 H2         13.2558   -0.7338    9.2331 H         1 L8J         0.0579
     21 H3         17.2809    4.0226    8.3436 H         1 L8J         0.0650
     22 H4         16.0063    5.2828    8.2255 H         1 L8J         0.0650
     23 H5         13.8544    4.8594    8.0982 H         1 L8J         0.0449
     24 H6         12.2019    1.1887    9.0105 H         1 L8J         0.2362
@<TRIPOS>BOND
     1    1    2 ar 
     2    1    4 ar 
     3    1   17 1  
     4    2    3 ar 
     5    3    6 ar 
     6    3   18 1  
     7    4    5 ar 
     8    5    6 ar 
     9    5   11 1  
    10    6    7 1  
    11    7    8 1  
    12    7    9 2  
    13    8   16 1  
    14    9   10 1  
    15   10   11 am 
    16   10   15 2  
    17   16   12 ar 
    18   16   13 ar 
    19   16   14 ar 
    20    2   19 1  
    21    4   20 1  
    22    8   21 1  
    23    8   22 1  
    24    9   23 1  
    25   11   24 1  
@<TRIPOS>SUBSTRUCTURE
     1 L8J         1

