5tpg_ligand
  -I-interpret- 

 73 77  0  0  0  0  0  0  0  0999 V2000
   15.3400   -4.3910   18.1870 C   0  0  0  0  0
   10.9150   -5.6500   19.5290 C   0  0  0  0  0
    9.9140   -6.6070   20.1260 C   0  0  0  0  0
    8.8280   -8.7560   19.5820 C   0  0  0  0  0
    7.3670  -11.3310   24.0510 F   0  0  0  0  0
   13.0150   -5.2340   18.3430 C   0  0  0  0  0
   14.4820   -5.5310   18.5900 C   0  0  0  0  0
   13.2130   -6.6230   20.3290 C   0  0  0  0  0
   15.4390   -4.1200   16.8980 O   0  0  0  0  0
   12.2620   -6.2630   19.1540 C   0  0  0  0  0
   14.4330   -5.8740   19.9960 N   0  3  0  0  0
    3.7020  -15.1210   16.7810 O   0  0  0  0  0
    3.6990  -13.7440   17.1530 S   0  0  0  0  0
    2.4250  -13.1270   16.8930 O   0  0  0  0  0
    4.7370  -12.8910   16.1730 C   0  0  0  0  0
    4.0650  -13.6440   18.6970 C   0  0  0  0  0
    4.7530  -14.6750   19.3240 C   0  0  0  0  0
    5.0340  -14.5770   20.6910 C   0  0  0  0  0
    4.5810  -13.4770   21.4230 C   0  0  0  0  0
    3.6130  -12.5390   19.4260 C   0  0  0  0  0
    3.8670  -12.4440   20.7930 C   0  0  0  0  0
    3.3780  -11.2020   21.4690 C   0  0  0  0  0
    2.0710  -10.7710   21.2830 C   0  0  0  0  0
    1.6250   -9.5890   21.8700 C   0  0  0  0  0
   -0.0540   -9.0570   21.6510 Cl  0  0  0  0  0
    2.4490   -8.7940   22.6450 C   0  0  0  0  0
    3.7550   -9.1640   22.8400 C   0  0  0  0  0
    4.2730  -10.3390   22.2860 C   0  0  0  0  0
    5.7060  -10.6750   22.5410 C   0  0  0  0  0
    6.0770  -10.9770   23.9920 C   0  0  0  0  0
    5.9190   -9.9180   24.7560 F   0  0  0  0  0
    5.3130  -11.9640   24.4130 F   0  0  0  0  0
    6.4020   -9.5250   22.0960 O   0  0  0  0  0
    7.1210   -9.6160   20.9480 C   0  0  0  0  0
    8.0760   -8.6830   20.7470 C   0  0  0  0  0
    6.9320  -10.6170   20.0740 N   0  0  0  0  0
    7.7220  -10.7020   18.9920 C   0  0  0  0  0
    7.5010  -11.6950   18.1510 N   0  0  0  0  0
    8.6600   -9.7860   18.7530 N   0  0  0  0  0
    9.8520   -7.8600   19.3900 N   0  0  0  0  0
   10.9910   -8.4640   18.7000 C   0  0  0  0  0
   11.9620   -7.4190   18.2280 C   0  0  0  0  0
   15.9050   -3.6970   19.0270 O   0  0  0  0  0
   11.1168   -4.8955   20.2894 H   0  0  0  0  0
   10.4750   -5.2751   18.6049 H   0  0  0  0  0
    8.9301   -6.1395   20.0866 H   0  0  0  0  0
   10.2208   -6.8272   21.1485 H   0  0  0  0  0
   12.7647   -5.2943   17.2838 H   0  0  0  0  0
   12.7543   -4.2181   18.6397 H   0  0  0  0  0
   14.9432   -6.3261   18.0041 H   0  0  0  0  0
   13.3844   -7.6952   20.4250 H   0  0  0  0  0
   12.8039   -6.3588   21.3042 H   0  0  0  0  0
   14.9348   -4.7652   16.3969 H   0  0  0  0  0
   14.4386   -5.0102   20.5385 H   0  0  0  0  0
   15.2395   -6.4596   20.2128 H   0  0  0  0  0
    5.7455  -13.2906   16.2790 H   0  0  0  0  0
    4.4149  -12.9847   15.1359 H   0  0  0  0  0
    4.7285  -11.8406   16.4640 H   0  0  0  0  0
    5.0703  -15.5504   18.7574 H   0  0  0  0  0
    5.6076  -15.3607   21.1859 H   0  0  0  0  0
    4.7833  -13.4195   22.4925 H   0  0  0  0  0
    3.0587  -11.7474   18.9218 H   0  0  0  0  0
    1.3885  -11.3624   20.6727 H   0  0  0  0  0
    2.0636   -7.8803   23.0974 H   0  0  0  0  0
    4.4045   -8.5274   23.4408 H   0  0  0  0  0
    5.9548  -11.6034   22.0270 H   0  0  0  0  0
    8.2518   -7.8945   21.4788 H   0  0  0  0  0
    6.7520  -12.3624   18.3354 H   0  0  0  0  0
    8.0792  -11.7950   17.3167 H   0  0  0  0  0
   10.6206   -9.0099   17.8323 H   0  0  0  0  0
   11.5060   -9.1264   19.3958 H   0  0  0  0  0
   12.9101   -7.9411   18.0993 H   0  0  0  0  0
   11.5019   -6.9726   17.3464 H   0  0  0  0  0
  7  1  1  0  0  0
  1  9  1  0  0  0
  1 43  2  0  0  0
  3  2  1  0  0  0
  2 10  1  0  0  0
 40  3  1  0  0  0
 35  4  4  0  0  0
  4 39  4  0  0  0
  4 40  1  0  0  0
 30  5  1  0  0  0
  6  7  1  0  0  0
 10  6  1  0  0  0
 11  7  1  0  0  0
 10  8  1  0  0  0
  8 11  1  0  0  0
 10 42  1  0  0  0
 13 12  2  0  0  0
 13 14  2  0  0  0
 13 15  1  0  0  0
 16 13  1  0  0  0
 16 17  4  0  0  0
 20 16  4  0  0  0
 18 17  4  0  0  0
 19 18  4  0  0  0
 21 19  4  0  0  0
 21 20  4  0  0  0
 22 21  1  0  0  0
 22 23  4  0  0  0
 28 22  4  0  0  0
 23 24  4  0  0  0
 24 25  1  0  0  0
 26 24  4  0  0  0
 27 26  4  0  0  0
 28 27  4  0  0  0
 29 28  1  0  0  0
 29 30  1  0  0  0
 33 29  1  0  0  0
 30 31  1  0  0  0
 30 32  1  0  0  0
 34 33  1  0  0  0
 34 35  4  0  0  0
 34 36  4  0  0  0
 36 37  4  0  0  0
 37 38  1  0  0  0
 37 39  4  0  0  0
 40 41  1  0  0  0
 41 42  1  0  0  0
  2 44  1  0  0  0
  2 45  1  0  0  0
  3 46  1  0  0  0
  3 47  1  0  0  0
  6 48  1  0  0  0
  6 49  1  0  0  0
  7 50  1  0  0  0
  8 51  1  0  0  0
  8 52  1  0  0  0
  9 53  1  0  0  0
 11 54  1  0  0  0
 11 55  1  0  0  0
 15 56  1  0  0  0
 15 57  1  0  0  0
 15 58  1  0  0  0
 17 59  1  0  0  0
 18 60  1  0  0  0
 19 61  1  0  0  0
 20 62  1  0  0  0
 23 63  1  0  0  0
 26 64  1  0  0  0
 27 65  1  0  0  0
 29 66  1  0  0  0
 35 67  1  0  0  0
 38 68  1  0  0  0
 38 69  1  0  0  0
 41 70  1  0  0  0
 41 71  1  0  0  0
 42 72  1  0  0  0
 42 73  1  0  0  0
M  END
$$$$
