### 
### Created by X-TOOL on Mon Aug  2 16:14:51 2021
### 

@<TRIPOS>MOLECULE
6mj4_ligand
  168   168     1     0     0
SMALL
GAST_HUCK


@<TRIPOS>ATOM
      1 C6        -18.0850  -28.7480   19.1810 C.3       1 JTG         0.1341
      2 C5        -18.4390  -27.2780   19.0440 C.3       1 JTG         0.1143
      3 C4        -18.6450  -26.6610   20.4270 C.3       1 JTG         0.1153
      4 C3        -17.3770  -26.8730   21.2640 C.3       1 JTG         0.1133
      5 C1        -16.8270  -28.8660   20.0160 C.3       1 JTG         0.1880
      6 CBT        -4.7090  -32.7120    7.9780 C.3       1 JTG        -0.0653
      7 CBS        -5.7190  -31.5850    8.2340 C.3       1 JTG        -0.0559
      8 CBR        -5.0260  -30.2360    8.1480 C.3       1 JTG        -0.0533
      9 CBQ        -6.0600  -29.0950    8.1610 C.3       1 JTG        -0.0531
     10 CBP        -6.3080  -28.6200    9.5810 C.3       1 JTG        -0.0531
     11 CBO        -6.9780  -27.2470    9.5760 C.3       1 JTG        -0.0531
     12 CBN        -7.0320  -26.7730   11.0280 C.3       1 JTG        -0.0531
     13 CBM        -7.9730  -25.5750   11.1610 C.3       1 JTG        -0.0531
     14 CBL        -7.9770  -25.1090   12.6190 C.3       1 JTG        -0.0531
     15 CBK        -9.0830  -25.8190   13.4300 C.3       1 JTG        -0.0531
     16 CBJ        -9.1880  -25.1380   14.8050 C.3       1 JTG        -0.0531
     17 CBI       -10.3800  -25.6870   15.6220 C.3       1 JTG        -0.0530
     18 CBH       -10.1300  -27.1410   16.0520 C.3       1 JTG        -0.0506
     19 CBG       -11.1010  -27.5810   17.1660 C.3       1 JTG        -0.0243
     20 CAQ       -12.5540  -27.5740   16.6790 C.3       1 JTG         0.0833
     21 OAR       -12.6690  -28.2770   15.4230 O.3       1 JTG        -0.3892
     22 CAP       -13.4880  -28.2680   17.6790 C.3       1 JTG         0.1059
     23 OAS       -13.0750  -29.6130   17.8850 O.3       1 JTG        -0.3869
     24 CAN       -13.5120  -27.5820   19.0410 C.3       1 JTG         0.0936
     25 CAM       -14.5200  -28.2810   19.9540 C.3       1 JTG         0.0762
     26 O1        -15.7880  -28.1840   19.3240 O.3       1 JTG        -0.3463
     27 O5        -17.8580  -29.3270   17.8710 O.3       1 JTG        -0.3841
     28 O3        -19.6180  -27.1590   18.2920 O.3       1 JTG        -0.3864
     29 O2        -17.0350  -28.2650   21.3050 O.3       1 JTG        -0.3405
     30 C2        -17.5690  -26.4490   22.7330 C.3       1 JTG         0.0730
     31 O6        -18.0010  -25.0880   22.7990 O.3       1 JTG        -0.3924
     32 O4        -19.7910  -27.3010   21.0290 O.3       1 JTG        -0.3713
     33 CAT       -20.7250  -26.4080   21.6470 C.3       1 JTG         0.0480
     34 CAU       -21.9200  -26.1810   20.7240 C.3       1 JTG        -0.0323
     35 CAX       -22.1460  -24.6850   20.5360 C.3       1 JTG        -0.0632
     36 NAO       -13.9220  -26.1870   18.9140 N.am      1 JTG        -0.2791
     37 CBE       -13.5410  -25.3040   19.8500 C.2       1 JTG         0.1764
     38 OBF       -12.8160  -25.5980   20.8010 O.2       1 JTG        -0.3971
     39 CBU       -14.0670  -23.8780   19.6540 C.3       1 JTG         0.0372
     40 CBV       -12.9500  -22.8510   19.8440 C.3       1 JTG        -0.0361
     41 CBW       -12.0330  -22.8000   18.6290 C.3       1 JTG        -0.0510
     42 CBX       -10.9310  -21.7840   18.9520 C.3       1 JTG        -0.0529
     43 CBY        -9.8940  -21.6800   17.8390 C.3       1 JTG        -0.0531
     44 CBZ        -8.8350  -20.6520   18.2870 C.3       1 JTG        -0.0531
     45 CCA        -7.5240  -20.9000   17.5680 C.3       1 JTG        -0.0531
     46 CCB        -6.4580  -19.9120   18.0520 C.3       1 JTG        -0.0531
     47 CCC        -5.9250  -20.3180   19.4370 C.3       1 JTG        -0.0531
     48 CCD        -4.4130  -20.5500   19.4310 C.3       1 JTG        -0.0531
     49 CCE        -3.7380  -19.8030   20.5720 C.3       1 JTG        -0.0531
     50 CCF        -3.9210  -20.5330   21.9030 C.3       1 JTG        -0.0531
     51 CCG        -3.2250  -19.7170   23.0020 C.3       1 JTG        -0.0531
     52 CCH        -4.1730  -19.4290   24.1660 C.3       1 JTG        -0.0531
     53 CCI        -3.6830  -18.2180   24.9800 C.3       1 JTG        -0.0531
     54 CCJ        -4.7330  -17.1070   24.9170 C.3       1 JTG        -0.0531
     55 CCK        -4.2800  -15.8580   25.6880 C.3       1 JTG        -0.0531
     56 CCL        -5.4630  -14.9200   25.9480 C.3       1 JTG        -0.0531
     57 CCM        -6.0240  -14.3150   24.6410 C.3       1 JTG        -0.0531
     58 CCN        -7.3570  -14.9710   24.2970 C.3       1 JTG        -0.0531
     59 CCO        -8.3700  -13.9870   23.7000 C.3       1 JTG        -0.0531
     60 CCP        -8.0030  -13.5480   22.2770 C.3       1 JTG        -0.0531
     61 CCQ        -7.7450  -14.7400   21.3610 C.3       1 JTG        -0.0533
     62 CCR        -7.9380  -14.3260   19.9050 C.3       1 JTG        -0.0559
     63 CCS        -7.6910  -15.5360   18.9970 C.3       1 JTG        -0.0653
     64 H1        -18.9094  -29.2810   19.6773 H         1 JTG         0.0671
     65 H2        -17.6217  -26.7515   18.5295 H         1 JTG         0.0648
     66 H3        -18.8376  -25.5823   20.3309 H         1 JTG         0.0649
     67 H4        -16.5557  -26.2948   20.8156 H         1 JTG         0.0647
     68 H5        -16.5599  -29.9253   20.1445 H         1 JTG         0.0937
     69 H6         -5.2201  -33.6839    8.0424 H         1 JTG         0.0230
     70 H7         -3.9102  -32.6671    8.7329 H         1 JTG         0.0230
     71 H8         -4.2729  -32.5928    6.9752 H         1 JTG         0.0230
     72 H9         -6.1547  -31.7072    9.2366 H         1 JTG         0.0263
     73 H10        -6.5174  -31.6330    7.4788 H         1 JTG         0.0263
     74 H11        -4.4447  -30.1867    7.2154 H         1 JTG         0.0265
     75 H12        -4.3499  -30.1212    9.0080 H         1 JTG         0.0265
     76 H13        -7.0049  -29.4576    7.7302 H         1 JTG         0.0265
     77 H14        -5.6809  -28.2558    7.5594 H         1 JTG         0.0265
     78 H15        -5.3477  -28.5523   10.1131 H         1 JTG         0.0265
     79 H16        -6.9619  -29.3401   10.0947 H         1 JTG         0.0265
     80 H17        -7.9956  -27.3243    9.1655 H         1 JTG         0.0265
     81 H18        -6.3906  -26.5418    8.9697 H         1 JTG         0.0265
     82 H19        -6.0226  -26.4791   11.3515 H         1 JTG         0.0265
     83 H20        -7.3966  -27.5930   11.6640 H         1 JTG         0.0265
     84 H21        -8.9905  -25.8696   10.8645 H         1 JTG         0.0265
     85 H22        -7.6244  -24.7575   10.5128 H         1 JTG         0.0265
     86 H23        -8.1518  -24.0234   12.6481 H         1 JTG         0.0265
     87 H24        -6.9998  -25.3353   13.0706 H         1 JTG         0.0265
     88 H25        -8.8255  -26.8805   13.5597 H         1 JTG         0.0265
     89 H26       -10.0435  -25.7367   12.9002 H         1 JTG         0.0265
     90 H27        -9.3238  -24.0563   14.6583 H         1 JTG         0.0265
     91 H28        -8.2584  -25.3183   15.3647 H         1 JTG         0.0265
     92 H29       -11.2890  -25.6460   15.0039 H         1 JTG         0.0265
     93 H30       -10.5180  -25.0654   16.5189 H         1 JTG         0.0265
     94 H31        -9.0982  -27.2309   16.4225 H         1 JTG         0.0266
     95 H32       -10.2654  -27.7988   15.1808 H         1 JTG         0.0266
     96 H33       -11.0058  -26.8902   18.0167 H         1 JTG         0.0291
     97 H34       -10.8371  -28.5989   17.4889 H         1 JTG         0.0291
     98 H35       -12.8755  -26.5304   16.5463 H         1 JTG         0.0620
     99 H36       -12.3855  -29.1764   15.5377 H         1 JTG         0.2099
    100 H37       -14.5056  -28.2604   17.2614 H         1 JTG         0.0643
    101 H38       -13.1004  -30.0810   17.0586 H         1 JTG         0.2100
    102 H39       -12.5080  -27.6315   19.4877 H         1 JTG         0.0605
    103 H40       -14.5472  -27.7857   20.9358 H         1 JTG         0.0585
    104 H41       -14.2427  -29.3375   20.0839 H         1 JTG         0.0585
    105 H42       -17.1488  -28.8645   17.4402 H         1 JTG         0.2101
    106 H43       -19.4850  -27.5437   17.4337 H         1 JTG         0.2100
    107 H44       -16.6146  -26.5542   23.2698 H         1 JTG         0.0584
    108 H45       -18.3265  -27.0942   23.2019 H         1 JTG         0.0584
    109 H46       -17.3470  -24.5294   22.3957 H         1 JTG         0.2095
    110 H47       -20.2312  -25.4456   21.8468 H         1 JTG         0.0560
    111 H48       -21.0743  -26.8446   22.5943 H         1 JTG         0.0560
    112 H49       -22.8180  -26.6333   21.1701 H         1 JTG         0.0285
    113 H50       -21.7215  -26.6465   19.7473 H         1 JTG         0.0285
    114 H51       -23.0073  -24.5251   19.8708 H         1 JTG         0.0230
    115 H52       -21.2487  -24.2319   20.0894 H         1 JTG         0.0230
    116 H53       -22.3451  -24.2187   21.5122 H         1 JTG         0.0230
    117 H54       -14.4804  -25.8926   18.1384 H         1 JTG         0.1856
    118 H55       -14.8627  -23.6840   20.3883 H         1 JTG         0.0502
    119 H56       -14.4750  -23.7817   18.6370 H         1 JTG         0.0502
    120 H57       -12.3573  -23.1257   20.7290 H         1 JTG         0.0290
    121 H58       -13.3982  -21.8581   19.9966 H         1 JTG         0.0290
    122 H59       -12.5972  -22.4781   17.7413 H         1 JTG         0.0267
    123 H60       -11.5928  -23.7910   18.4442 H         1 JTG         0.0267
    124 H61       -10.4253  -22.0935   19.8785 H         1 JTG         0.0265
    125 H62       -11.3926  -20.7963   19.0985 H         1 JTG         0.0265
    126 H63       -10.3742  -21.3432   16.9084 H         1 JTG         0.0265
    127 H64        -9.4207  -22.6591   17.6739 H         1 JTG         0.0265
    128 H65        -8.6768  -20.7432   19.3717 H         1 JTG         0.0265
    129 H66        -9.1914  -19.6381   18.0523 H         1 JTG         0.0265
    130 H67        -7.6735  -20.7714   16.4858 H         1 JTG         0.0265
    131 H68        -7.1866  -21.9269   17.7721 H         1 JTG         0.0265
    132 H69        -6.9005  -18.9070   18.1164 H         1 JTG         0.0265
    133 H70        -5.6246  -19.9004   17.3342 H         1 JTG         0.0265
    134 H71        -6.4243  -21.2468   19.7500 H         1 JTG         0.0265
    135 H72        -6.1573  -19.5171   20.1543 H         1 JTG         0.0265
    136 H73        -3.9992  -20.1955   18.4755 H         1 JTG         0.0265
    137 H74        -4.2146  -21.6265   19.5397 H         1 JTG         0.0265
    138 H75        -4.1782  -18.7981   20.6517 H         1 JTG         0.0265
    139 H76        -2.6628  -19.7163   20.3564 H         1 JTG         0.0265
    140 H77        -3.4708  -21.5348   21.8424 H         1 JTG         0.0265
    141 H78        -4.9929  -20.6259   22.1316 H         1 JTG         0.0265
    142 H79        -2.8807  -18.7630   22.5761 H         1 JTG         0.0265
    143 H80        -2.3604  -20.2847   23.3764 H         1 JTG         0.0265
    144 H81        -4.2176  -20.3108   24.8221 H         1 JTG         0.0265
    145 H82        -5.1767  -19.2155   23.7699 H         1 JTG         0.0265
    146 H83        -2.7351  -17.8517   24.5590 H         1 JTG         0.0265
    147 H84        -3.5278  -18.5177   26.0269 H         1 JTG         0.0265
    148 H85        -5.6713  -17.4769   25.3561 H         1 JTG         0.0265
    149 H86        -4.9027  -16.8351   23.8647 H         1 JTG         0.0265
    150 H87        -3.5205  -15.3252   25.0970 H         1 JTG         0.0265
    151 H88        -3.8459  -16.1662   26.6506 H         1 JTG         0.0265
    152 H89        -5.1294  -14.1016   26.6029 H         1 JTG         0.0265
    153 H90        -6.2621  -15.4871   26.4478 H         1 JTG         0.0265
    154 H91        -5.3099  -14.4886   23.8225 H         1 JTG         0.0265
    155 H92        -6.1732  -13.2333   24.7742 H         1 JTG         0.0265
    156 H93        -7.7842  -15.4004   25.2152 H         1 JTG         0.0265
    157 H94        -7.1752  -15.7735   23.5670 H         1 JTG         0.0265
    158 H95        -8.4147  -13.0953   24.3425 H         1 JTG         0.0265
    159 H96        -9.3575  -14.4709   23.6750 H         1 JTG         0.0265
    160 H97        -7.0945  -12.9292   22.3192 H         1 JTG         0.0265
    161 H98        -8.8318  -12.9548   21.8632 H         1 JTG         0.0265
    162 H99        -8.4493  -15.5484   21.6069 H         1 JTG         0.0265
    163 H100       -6.7140  -15.0951   21.5058 H         1 JTG         0.0265
    164 H101       -7.2261  -13.5262   19.6530 H         1 JTG         0.0263
    165 H102       -8.9656  -13.9614   19.7598 H         1 JTG         0.0263
    166 H103       -7.8295  -15.2404   17.9465 H         1 JTG         0.0230
    167 H104       -8.4029  -16.3355   19.2498 H         1 JTG         0.0230
    168 H105       -6.6634  -15.9003   19.1430 H         1 JTG         0.0230
@<TRIPOS>BOND
     1    1    2 1  
     2    5    1 1  
     3    1   27 1  
     4    2    3 1  
     5    2   28 1  
     6    4    3 1  
     7    3   32 1  
     8   29    4 1  
     9    4   30 1  
    10   26    5 1  
    11    5   29 1  
    12    7    6 1  
    13    8    7 1  
    14    9    8 1  
    15   10    9 1  
    16   11   10 1  
    17   12   11 1  
    18   13   12 1  
    19   14   13 1  
    20   15   14 1  
    21   16   15 1  
    22   17   16 1  
    23   18   17 1  
    24   19   18 1  
    25   20   19 1  
    26   20   21 1  
    27   22   20 1  
    28   22   23 1  
    29   24   22 1  
    30   25   24 1  
    31   24   36 1  
    32   25   26 1  
    33   30   31 1  
    34   32   33 1  
    35   33   34 1  
    36   34   35 1  
    37   36   37 am 
    38   37   38 2  
    39   37   39 1  
    40   39   40 1  
    41   40   41 1  
    42   41   42 1  
    43   42   43 1  
    44   43   44 1  
    45   44   45 1  
    46   45   46 1  
    47   46   47 1  
    48   47   48 1  
    49   48   49 1  
    50   49   50 1  
    51   50   51 1  
    52   51   52 1  
    53   52   53 1  
    54   53   54 1  
    55   54   55 1  
    56   55   56 1  
    57   56   57 1  
    58   57   58 1  
    59   58   59 1  
    60   59   60 1  
    61   60   61 1  
    62   61   62 1  
    63   62   63 1  
    64    1   64 1  
    65    2   65 1  
    66    3   66 1  
    67    4   67 1  
    68    5   68 1  
    69    6   69 1  
    70    6   70 1  
    71    6   71 1  
    72    7   72 1  
    73    7   73 1  
    74    8   74 1  
    75    8   75 1  
    76    9   76 1  
    77    9   77 1  
    78   10   78 1  
    79   10   79 1  
    80   11   80 1  
    81   11   81 1  
    82   12   82 1  
    83   12   83 1  
    84   13   84 1  
    85   13   85 1  
    86   14   86 1  
    87   14   87 1  
    88   15   88 1  
    89   15   89 1  
    90   16   90 1  
    91   16   91 1  
    92   17   92 1  
    93   17   93 1  
    94   18   94 1  
    95   18   95 1  
    96   19   96 1  
    97   19   97 1  
    98   20   98 1  
    99   21   99 1  
   100   22  100 1  
   101   23  101 1  
   102   24  102 1  
   103   25  103 1  
   104   25  104 1  
   105   27  105 1  
   106   28  106 1  
   107   30  107 1  
   108   30  108 1  
   109   31  109 1  
   110   33  110 1  
   111   33  111 1  
   112   34  112 1  
   113   34  113 1  
   114   35  114 1  
   115   35  115 1  
   116   35  116 1  
   117   36  117 1  
   118   39  118 1  
   119   39  119 1  
   120   40  120 1  
   121   40  121 1  
   122   41  122 1  
   123   41  123 1  
   124   42  124 1  
   125   42  125 1  
   126   43  126 1  
   127   43  127 1  
   128   44  128 1  
   129   44  129 1  
   130   45  130 1  
   131   45  131 1  
   132   46  132 1  
   133   46  133 1  
   134   47  134 1  
   135   47  135 1  
   136   48  136 1  
   137   48  137 1  
   138   49  138 1  
   139   49  139 1  
   140   50  140 1  
   141   50  141 1  
   142   51  142 1  
   143   51  143 1  
   144   52  144 1  
   145   52  145 1  
   146   53  146 1  
   147   53  147 1  
   148   54  148 1  
   149   54  149 1  
   150   55  150 1  
   151   55  151 1  
   152   56  152 1  
   153   56  153 1  
   154   57  154 1  
   155   57  155 1  
   156   58  156 1  
   157   58  157 1  
   158   59  158 1  
   159   59  159 1  
   160   60  160 1  
   161   60  161 1  
   162   61  162 1  
   163   61  163 1  
   164   62  164 1  
   165   62  165 1  
   166   63  166 1  
   167   63  167 1  
   168   63  168 1  
@<TRIPOS>SUBSTRUCTURE
     1 JTG         1

