6mj4_ligand
  -I-interpret- 

168168  0  0  0  0  0  0  0  0999 V2000
  -18.0850  -28.7480   19.1810 C   0  0  0  0  0
  -18.4390  -27.2780   19.0440 C   0  0  0  0  0
  -18.6450  -26.6610   20.4270 C   0  0  0  0  0
  -17.3770  -26.8730   21.2640 C   0  0  0  0  0
  -16.8270  -28.8660   20.0160 C   0  0  0  0  0
   -4.7090  -32.7120    7.9780 C   0  0  0  0  0
   -5.7190  -31.5850    8.2340 C   0  0  0  0  0
   -5.0260  -30.2360    8.1480 C   0  0  0  0  0
   -6.0600  -29.0950    8.1610 C   0  0  0  0  0
   -6.3080  -28.6200    9.5810 C   0  0  0  0  0
   -6.9780  -27.2470    9.5760 C   0  0  0  0  0
   -7.0320  -26.7730   11.0280 C   0  0  0  0  0
   -7.9730  -25.5750   11.1610 C   0  0  0  0  0
   -7.9770  -25.1090   12.6190 C   0  0  0  0  0
   -9.0830  -25.8190   13.4300 C   0  0  0  0  0
   -9.1880  -25.1380   14.8050 C   0  0  0  0  0
  -10.3800  -25.6870   15.6220 C   0  0  0  0  0
  -10.1300  -27.1410   16.0520 C   0  0  0  0  0
  -11.1010  -27.5810   17.1660 C   0  0  0  0  0
  -12.5540  -27.5740   16.6790 C   0  0  0  0  0
  -12.6690  -28.2770   15.4230 O   0  0  0  0  0
  -13.4880  -28.2680   17.6790 C   0  0  0  0  0
  -13.0750  -29.6130   17.8850 O   0  0  0  0  0
  -13.5120  -27.5820   19.0410 C   0  0  0  0  0
  -14.5200  -28.2810   19.9540 C   0  0  0  0  0
  -15.7880  -28.1840   19.3240 O   0  0  0  0  0
  -17.8580  -29.3270   17.8710 O   0  0  0  0  0
  -19.6180  -27.1590   18.2920 O   0  0  0  0  0
  -17.0350  -28.2650   21.3050 O   0  0  0  0  0
  -17.5690  -26.4490   22.7330 C   0  0  0  0  0
  -18.0010  -25.0880   22.7990 O   0  0  0  0  0
  -19.7910  -27.3010   21.0290 O   0  0  0  0  0
  -20.7250  -26.4080   21.6470 C   0  0  0  0  0
  -21.9200  -26.1810   20.7240 C   0  0  0  0  0
  -22.1460  -24.6850   20.5360 C   0  0  0  0  0
  -13.9220  -26.1870   18.9140 N   0  0  0  0  0
  -13.5410  -25.3040   19.8500 C   0  0  0  0  0
  -12.8160  -25.5980   20.8010 O   0  0  0  0  0
  -14.0670  -23.8780   19.6540 C   0  0  0  0  0
  -12.9500  -22.8510   19.8440 C   0  0  0  0  0
  -12.0330  -22.8000   18.6290 C   0  0  0  0  0
  -10.9310  -21.7840   18.9520 C   0  0  0  0  0
   -9.8940  -21.6800   17.8390 C   0  0  0  0  0
   -8.8350  -20.6520   18.2870 C   0  0  0  0  0
   -7.5240  -20.9000   17.5680 C   0  0  0  0  0
   -6.4580  -19.9120   18.0520 C   0  0  0  0  0
   -5.9250  -20.3180   19.4370 C   0  0  0  0  0
   -4.4130  -20.5500   19.4310 C   0  0  0  0  0
   -3.7380  -19.8030   20.5720 C   0  0  0  0  0
   -3.9210  -20.5330   21.9030 C   0  0  0  0  0
   -3.2250  -19.7170   23.0020 C   0  0  0  0  0
   -4.1730  -19.4290   24.1660 C   0  0  0  0  0
   -3.6830  -18.2180   24.9800 C   0  0  0  0  0
   -4.7330  -17.1070   24.9170 C   0  0  0  0  0
   -4.2800  -15.8580   25.6880 C   0  0  0  0  0
   -5.4630  -14.9200   25.9480 C   0  0  0  0  0
   -6.0240  -14.3150   24.6410 C   0  0  0  0  0
   -7.3570  -14.9710   24.2970 C   0  0  0  0  0
   -8.3700  -13.9870   23.7000 C   0  0  0  0  0
   -8.0030  -13.5480   22.2770 C   0  0  0  0  0
   -7.7450  -14.7400   21.3610 C   0  0  0  0  0
   -7.9380  -14.3260   19.9050 C   0  0  0  0  0
   -7.6910  -15.5360   18.9970 C   0  0  0  0  0
  -18.9047  -29.2818   19.6618 H   0  0  0  0  0
  -17.6270  -26.7528   18.5411 H   0  0  0  0  0
  -18.8277  -25.5882   20.3643 H   0  0  0  0  0
  -16.6036  -26.2681   20.7906 H   0  0  0  0  0
  -16.5641  -29.9129   20.1673 H   0  0  0  0  0
   -4.2776  -32.5927    6.9841 H   0  0  0  0  0
   -3.9181  -32.6663    8.7266 H   0  0  0  0  0
   -5.2166  -33.6745    8.0421 H   0  0  0  0  0
   -6.1460  -31.7057    9.2296 H   0  0  0  0  0
   -6.5066  -31.6319    7.4819 H   0  0  0  0  0
   -4.4587  -30.1885    7.2185 H   0  0  0  0  0
   -4.3641  -30.1231    9.0066 H   0  0  0  0  0
   -6.9969  -29.4608    7.7408 H   0  0  0  0  0
   -5.6769  -28.2627    7.5706 H   0  0  0  0  0
   -5.3533  -28.5465   10.1019 H   0  0  0  0  0
   -6.9628  -29.3319   10.0835 H   0  0  0  0  0
   -7.9803  -27.3077    9.1519 H   0  0  0  0  0
   -6.4152  -26.5447    8.9610 H   0  0  0  0  0
   -6.0315  -26.4761   11.3427 H   0  0  0  0  0
   -7.4002  -27.5858   11.6540 H   0  0  0  0  0
   -8.9812  -25.8628   10.8628 H   0  0  0  0  0
   -7.6327  -24.7651   10.5157 H   0  0  0  0  0
   -8.1650  -24.0355   12.6404 H   0  0  0  0  0
   -7.0112  -25.3495   13.0635 H   0  0  0  0  0
   -8.8369  -26.8737   13.5534 H   0  0  0  0  0
  -10.0353  -25.7481   12.9045 H   0  0  0  0  0
   -9.3396  -24.0698   14.6497 H   0  0  0  0  0
   -8.2703  -25.3364   15.3587 H   0  0  0  0  0
  -11.2745  -25.6552   14.9999 H   0  0  0  0  0
  -10.5033  -25.0745   16.5152 H   0  0  0  0  0
   -9.1120  -27.2160   16.4343 H   0  0  0  0  0
  -10.2843  -27.7863   15.1872 H   0  0  0  0  0
  -11.0121  -26.8821   17.9977 H   0  0  0  0  0
  -10.8429  -28.5960   17.4682 H   0  0  0  0  0
  -12.8418  -26.5285   16.5685 H   0  0  0  0  0
  -13.5839  -28.2633   15.1325 H   0  0  0  0  0
  -14.4858  -28.2186   17.2430 H   0  0  0  0  0
  -13.6666  -30.0358   18.5118 H   0  0  0  0  0
  -12.5062  -27.6352   19.4577 H   0  0  0  0  0
  -14.5409  -27.8103   20.9369 H   0  0  0  0  0
  -14.2438  -29.3244   20.1058 H   0  0  0  0  0
  -18.6577  -29.2500   17.3454 H   0  0  0  0  0
  -19.4836  -27.5478   17.4246 H   0  0  0  0  0
  -16.6208  -26.5493   23.2611 H   0  0  0  0  0
  -18.3236  -27.0866   23.1936 H   0  0  0  0  0
  -18.1174  -24.8346   23.7176 H   0  0  0  0  0
  -20.2348  -25.4538   21.8400 H   0  0  0  0  0
  -21.0729  -26.8447   22.5831 H   0  0  0  0  0
  -22.8096  -26.6282   21.1675 H   0  0  0  0  0
  -21.7219  -26.6413   19.7560 H   0  0  0  0  0
  -22.3432  -24.2242   21.5039 H   0  0  0  0  0
  -21.2562  -24.2372   20.0934 H   0  0  0  0  0
  -22.9997  -24.5278   19.8767 H   0  0  0  0  0
  -14.4916  -25.8867   18.1229 H   0  0  0  0  0
  -14.8460  -23.6880   20.3923 H   0  0  0  0  0
  -14.4583  -23.7857   18.6408 H   0  0  0  0  0
  -12.3586  -23.1383   20.7134 H   0  0  0  0  0
  -13.4015  -21.8682   19.9796 H   0  0  0  0  0
  -12.5855  -22.5038   17.7373 H   0  0  0  0  0
  -11.6077  -23.7819   18.4216 H   0  0  0  0  0
  -10.4224  -22.1139   19.8578 H   0  0  0  0  0
  -11.3976  -20.8062   19.0714 H   0  0  0  0  0
  -10.3641  -21.3622   16.9083 H   0  0  0  0  0
   -9.4310  -22.6499   17.6574 H   0  0  0  0  0
   -8.6760  -20.7499   19.3609 H   0  0  0  0  0
   -9.1885  -19.6493   18.0468 H   0  0  0  0  0
   -7.6742  -20.7654   16.4968 H   0  0  0  0  0
   -7.1894  -21.9160   17.7777 H   0  0  0  0  0
   -6.9049  -18.9205   18.1243 H   0  0  0  0  0
   -5.6302  -19.9129   17.3428 H   0  0  0  0  0
   -6.4094  -21.2507   19.7260 H   0  0  0  0  0
   -6.1404  -19.5076   20.1334 H   0  0  0  0  0
   -4.0083  -20.1839   18.4875 H   0  0  0  0  0
   -4.2239  -21.6165   19.5529 H   0  0  0  0  0
   -4.1907  -18.8149   20.6543 H   0  0  0  0  0
   -2.6713  -19.7356   20.3582 H   0  0  0  0  0
   -3.4843  -21.5300   21.8451 H   0  0  0  0  0
   -4.9822  -20.6356   22.1297 H   0  0  0  0  0
   -2.9007  -18.7675   22.5760 H   0  0  0  0  0
   -2.3792  -20.2926   23.3781 H   0  0  0  0  0
   -4.2057  -20.3019   24.8180 H   0  0  0  0  0
   -5.1633  -19.2083   23.7676 H   0  0  0  0  0
   -2.7431  -17.8553   24.5640 H   0  0  0  0  0
   -3.5279  -18.5146   26.0173 H   0  0  0  0  0
   -5.6534  -17.4764   25.3693 H   0  0  0  0  0
   -4.8821  -16.8323   23.8728 H   0  0  0  0  0
   -3.5359  -15.3285   25.0930 H   0  0  0  0  0
   -3.8610  -16.1687   26.6451 H   0  0  0  0  0
   -5.1159  -14.1022   26.5795 H   0  0  0  0  0
   -6.2562  -15.4971   26.4232 H   0  0  0  0  0
   -5.3167  -14.4906   23.8305 H   0  0  0  0  0
   -6.1742  -13.2438   24.7757 H   0  0  0  0  0
   -7.7813  -15.3665   25.2198 H   0  0  0  0  0
   -7.1653  -15.7439   23.5527 H   0  0  0  0  0
   -8.3841  -13.0981   24.3307 H   0  0  0  0  0
   -9.3369  -14.4883   23.6561 H   0  0  0  0  0
   -7.0910  -12.9532   22.3280 H   0  0  0  0  0
   -8.8385  -12.9790   21.8693 H   0  0  0  0  0
   -8.4456  -15.5389   21.6039 H   0  0  0  0  0
   -6.7221  -15.0887   21.5035 H   0  0  0  0  0
   -7.2338  -13.5325   19.6550 H   0  0  0  0  0
   -8.9557  -13.9634   19.7607 H   0  0  0  0  0
   -6.6725  -15.8960   19.1426 H   0  0  0  0  0
   -8.3970  -16.3275   19.2485 H   0  0  0  0  0
   -7.8285  -15.2419   17.9565 H   0  0  0  0  0
  1  2  1  0  0  0
  5  1  1  0  0  0
  1 27  1  0  0  0
  2  3  1  0  0  0
  2 28  1  0  0  0
  4  3  1  0  0  0
  3 32  1  0  0  0
 29  4  1  0  0  0
  4 30  1  0  0  0
 26  5  1  0  0  0
  5 29  1  0  0  0
  7  6  1  0  0  0
  8  7  1  0  0  0
  9  8  1  0  0  0
 10  9  1  0  0  0
 11 10  1  0  0  0
 12 11  1  0  0  0
 13 12  1  0  0  0
 14 13  1  0  0  0
 15 14  1  0  0  0
 16 15  1  0  0  0
 17 16  1  0  0  0
 18 17  1  0  0  0
 19 18  1  0  0  0
 20 19  1  0  0  0
 20 21  1  0  0  0
 22 20  1  0  0  0
 22 23  1  0  0  0
 24 22  1  0  0  0
 25 24  1  0  0  0
 24 36  1  0  0  0
 25 26  1  0  0  0
 30 31  1  0  0  0
 32 33  1  0  0  0
 33 34  1  0  0  0
 34 35  1  0  0  0
 36 37  1  0  0  0
 37 38  2  0  0  0
 37 39  1  0  0  0
 39 40  1  0  0  0
 40 41  1  0  0  0
 41 42  1  0  0  0
 42 43  1  0  0  0
 43 44  1  0  0  0
 44 45  1  0  0  0
 45 46  1  0  0  0
 46 47  1  0  0  0
 47 48  1  0  0  0
 48 49  1  0  0  0
 49 50  1  0  0  0
 50 51  1  0  0  0
 51 52  1  0  0  0
 52 53  1  0  0  0
 53 54  1  0  0  0
 54 55  1  0  0  0
 55 56  1  0  0  0
 56 57  1  0  0  0
 57 58  1  0  0  0
 58 59  1  0  0  0
 59 60  1  0  0  0
 60 61  1  0  0  0
 61 62  1  0  0  0
 62 63  1  0  0  0
  1 64  1  0  0  0
  2 65  1  0  0  0
  3 66  1  0  0  0
  4 67  1  0  0  0
  5 68  1  0  0  0
  6 69  1  0  0  0
  6 70  1  0  0  0
  6 71  1  0  0  0
  7 72  1  0  0  0
  7 73  1  0  0  0
  8 74  1  0  0  0
  8 75  1  0  0  0
  9 76  1  0  0  0
  9 77  1  0  0  0
 10 78  1  0  0  0
 10 79  1  0  0  0
 11 80  1  0  0  0
 11 81  1  0  0  0
 12 82  1  0  0  0
 12 83  1  0  0  0
 13 84  1  0  0  0
 13 85  1  0  0  0
 14 86  1  0  0  0
 14 87  1  0  0  0
 15 88  1  0  0  0
 15 89  1  0  0  0
 16 90  1  0  0  0
 16 91  1  0  0  0
 17 92  1  0  0  0
 17 93  1  0  0  0
 18 94  1  0  0  0
 18 95  1  0  0  0
 19 96  1  0  0  0
 19 97  1  0  0  0
 20 98  1  0  0  0
 21 99  1  0  0  0
 22100  1  0  0  0
 23101  1  0  0  0
 24102  1  0  0  0
 25103  1  0  0  0
 25104  1  0  0  0
 27105  1  0  0  0
 28106  1  0  0  0
 30107  1  0  0  0
 30108  1  0  0  0
 31109  1  0  0  0
 33110  1  0  0  0
 33111  1  0  0  0
 34112  1  0  0  0
 34113  1  0  0  0
 35114  1  0  0  0
 35115  1  0  0  0
 35116  1  0  0  0
 36117  1  0  0  0
 39118  1  0  0  0
 39119  1  0  0  0
 40120  1  0  0  0
 40121  1  0  0  0
 41122  1  0  0  0
 41123  1  0  0  0
 42124  1  0  0  0
 42125  1  0  0  0
 43126  1  0  0  0
 43127  1  0  0  0
 44128  1  0  0  0
 44129  1  0  0  0
 45130  1  0  0  0
 45131  1  0  0  0
 46132  1  0  0  0
 46133  1  0  0  0
 47134  1  0  0  0
 47135  1  0  0  0
 48136  1  0  0  0
 48137  1  0  0  0
 49138  1  0  0  0
 49139  1  0  0  0
 50140  1  0  0  0
 50141  1  0  0  0
 51142  1  0  0  0
 51143  1  0  0  0
 52144  1  0  0  0
 52145  1  0  0  0
 53146  1  0  0  0
 53147  1  0  0  0
 54148  1  0  0  0
 54149  1  0  0  0
 55150  1  0  0  0
 55151  1  0  0  0
 56152  1  0  0  0
 56153  1  0  0  0
 57154  1  0  0  0
 57155  1  0  0  0
 58156  1  0  0  0
 58157  1  0  0  0
 59158  1  0  0  0
 59159  1  0  0  0
 60160  1  0  0  0
 60161  1  0  0  0
 61162  1  0  0  0
 61163  1  0  0  0
 62164  1  0  0  0
 62165  1  0  0  0
 63166  1  0  0  0
 63167  1  0  0  0
 63168  1  0  0  0
M  END
$$$$
