### 
### Created by X-TOOL on Mon Sep 10 21:13:07 2018
### 

@<TRIPOS>MOLECULE
3oaf_ligand
   34    36     1     0     0
SMALL
GAST_HUCK


@<TRIPOS>ATOM
      1 C1         -2.9690  -15.1060   -1.6290 C.3       1 OAG         0.0617
      2 N1         -2.3780  -13.7100   -1.6360 N.pl3     1 OAG        -0.3109
      3 CL2        -2.2540  -10.6050   -0.6920 Cl        1 OAG        -0.0814
      4 CL5        -6.7630  -13.7800   -3.5800 Cl        1 OAG        -0.0740
      5 C9         -2.8470  -17.1160   -0.0860 C.ar      1 OAG        -0.0247
      6 C1'        -3.3870  -12.8590   -1.8370 C.ar      1 OAG         0.0542
      7 N1'        -3.3100  -17.5210    3.4980 N.ar      1 OAG        -0.2763
      8 C10        -3.0890  -15.7440   -0.2030 C.ar      1 OAG         0.0085
      9 C11        -3.5200  -11.4870   -1.4930 C.ar      1 OAG         0.0566
     10 C12        -5.7640  -11.4500   -2.4460 C.ar      1 OAG        -0.0607
     11 C2'        -3.0770  -18.8350    3.6260 C.ar      1 OAG         0.1617
     12 N2'        -3.0710  -19.4020    4.8800 N.pl3     1 OAG        -0.3065
     13 C3'        -4.7080  -10.8030   -1.7920 C.ar      1 OAG        -0.0592
     14 N3'        -2.7600  -19.5830    2.5460 N.ar      1 OAG        -0.2363
     15 C4'        -2.7470  -19.1250    1.3100 C.ar      1 OAG         0.1380
     16 N4'        -2.4600  -19.9410    0.3060 N.pl3     1 OAG        -0.3068
     17 C4A        -2.9250  -17.7340    1.1670 C.ar      1 OAG         0.0659
     18 C5'        -5.5980  -12.7990   -2.7890 C.ar      1 OAG         0.0290
     19 C6'        -4.4380  -13.4790   -2.4750 C.ar      1 OAG        -0.0299
     20 C7'        -3.3850  -15.0140    0.9670 C.ar      1 OAG         0.0147
     21 N8'        -3.4640  -15.5840    2.1790 N.ar      1 OAG        -0.2913
     22 C8A        -3.2180  -16.9290    2.2900 C.ar      1 OAG         0.0897
     23 H1         -2.3289  -15.7550   -2.2447 H         1 OAG         0.0674
     24 H2         -3.9751  -15.0572   -2.0711 H         1 OAG         0.0674
     25 H3         -1.3857  -13.4644   -1.5096 H         1 OAG         0.1785
     26 H4         -2.5993  -17.7003   -0.9648 H         1 OAG         0.0733
     27 H5         -6.6822  -10.9234   -2.6799 H         1 OAG         0.0511
     28 H6         -3.3125  -18.8327    5.7037 H         1 OAG         0.1838
     29 H7         -2.8251  -20.3956    4.9948 H         1 OAG         0.1838
     30 H8         -4.8098   -9.7604   -1.5132 H         1 OAG         0.0589
     31 H9         -2.4494  -19.5847   -0.6603 H         1 OAG         0.1882
     32 H10        -2.2475  -20.9315    0.4920 H         1 OAG         0.1882
     33 H11        -4.3526  -14.5273   -2.7374 H         1 OAG         0.0520
     34 H12        -3.5560  -13.9468    0.8834 H         1 OAG         0.0854
@<TRIPOS>BOND
     1    1    2 1  
     2    8    1 1  
     3    2    6 1  
     4    9    3 1  
     5   18    4 1  
     6    5    8 ar 
     7   17    5 ar 
     8    6    9 ar 
     9    6   19 ar 
    10   11    7 ar 
    11    7   22 ar 
    12    8   20 ar 
    13    9   13 ar 
    14   13   10 ar 
    15   10   18 ar 
    16   11   12 1  
    17   14   11 ar 
    18   15   14 ar 
    19   15   16 1  
    20   15   17 ar 
    21   17   22 ar 
    22   18   19 ar 
    23   20   21 ar 
    24   21   22 ar 
    25    1   23 1  
    26    1   24 1  
    27    2   25 1  
    28    5   26 1  
    29   10   27 1  
    30   12   28 1  
    31   12   29 1  
    32   13   30 1  
    33   16   31 1  
    34   16   32 1  
    35   19   33 1  
    36   20   34 1  
@<TRIPOS>SUBSTRUCTURE
     1 OAG         1

