3oaf_ligand
  -I-interpret- 

 34 36  0  0  0  0  0  0  0  0999 V2000
   -2.9690  -15.1060   -1.6290 C   0  0  0  0  0
   -2.3780  -13.7100   -1.6360 N   0  0  0  0  0
   -2.2540  -10.6050   -0.6920 Cl  0  0  0  0  0
   -6.7630  -13.7800   -3.5800 Cl  0  0  0  0  0
   -2.8470  -17.1160   -0.0860 C   0  0  0  0  0
   -3.3870  -12.8590   -1.8370 C   0  0  0  0  0
   -3.3100  -17.5210    3.4980 N   0  0  0  0  0
   -3.0890  -15.7440   -0.2030 C   0  0  0  0  0
   -3.5200  -11.4870   -1.4930 C   0  0  0  0  0
   -5.7640  -11.4500   -2.4460 C   0  0  0  0  0
   -3.0770  -18.8350    3.6260 C   0  0  0  0  0
   -3.0710  -19.4020    4.8800 N   0  0  0  0  0
   -4.7080  -10.8030   -1.7920 C   0  0  0  0  0
   -2.7600  -19.5830    2.5460 N   0  0  0  0  0
   -2.7470  -19.1250    1.3100 C   0  0  0  0  0
   -2.4600  -19.9410    0.3060 N   0  0  0  0  0
   -2.9250  -17.7340    1.1670 C   0  0  0  0  0
   -5.5980  -12.7990   -2.7890 C   0  0  0  0  0
   -4.4380  -13.4790   -2.4750 C   0  0  0  0  0
   -3.3850  -15.0140    0.9670 C   0  0  0  0  0
   -3.4640  -15.5840    2.1790 N   0  0  0  0  0
   -3.2180  -16.9290    2.2900 C   0  0  0  0  0
   -2.3013  -15.7413   -2.2109 H   0  0  0  0  0
   -3.9781  -15.0306   -2.0341 H   0  0  0  0  0
   -1.3954  -13.4668   -1.5108 H   0  0  0  0  0
   -2.5979  -17.7035   -0.9697 H   0  0  0  0  0
   -6.6872  -10.9205   -2.6812 H   0  0  0  0  0
   -3.2429  -18.8233    5.7022 H   0  0  0  0  0
   -2.8947  -20.4009    4.9872 H   0  0  0  0  0
   -4.8104   -9.7546   -1.5117 H   0  0  0  0  0
   -2.2496  -20.9219    0.4902 H   0  0  0  0  0
   -2.4495  -19.5881   -0.6510 H   0  0  0  0  0
   -4.3521  -14.5331   -2.7388 H   0  0  0  0  0
   -3.5569  -13.9409    0.8829 H   0  0  0  0  0
  1  2  1  0  0  0
  8  1  1  0  0  0
  2  6  1  0  0  0
  9  3  1  0  0  0
 18  4  1  0  0  0
  5  8  4  0  0  0
 17  5  4  0  0  0
  6  9  4  0  0  0
  6 19  4  0  0  0
 11  7  4  0  0  0
  7 22  4  0  0  0
  8 20  4  0  0  0
  9 13  4  0  0  0
 13 10  4  0  0  0
 10 18  4  0  0  0
 11 12  1  0  0  0
 14 11  4  0  0  0
 15 14  4  0  0  0
 15 16  1  0  0  0
 15 17  4  0  0  0
 17 22  4  0  0  0
 18 19  4  0  0  0
 20 21  4  0  0  0
 21 22  4  0  0  0
  1 23  1  0  0  0
  1 24  1  0  0  0
  2 25  1  0  0  0
  5 26  1  0  0  0
 10 27  1  0  0  0
 12 28  1  0  0  0
 12 29  1  0  0  0
 13 30  1  0  0  0
 16 31  1  0  0  0
 16 32  1  0  0  0
 19 33  1  0  0  0
 20 34  1  0  0  0
M  END
$$$$
