6poi_ligand
  -I-interpret- 

 32 34  0  0  0  0  0  0  0  0999 V2000
   39.6840   12.0030    5.3350 O   0  0  0  0  0
   40.3420   13.1580    5.1030 C   0  0  0  0  0
   41.4880   13.5190    5.8620 C   0  0  0  0  0
   41.7120   15.6320    4.6890 C   0  0  0  0  0
   38.8000    9.1820    2.2340 C   0  0  0  0  0
   39.7600    6.5350    0.5120 C   0  0  0  0  0
   38.5730    7.4770    0.2200 C   0  0  0  0  0
   38.1030    8.2030    1.4190 C   0  0  0  0  0
   36.9140    8.0740    1.9710 C   0  0  0  0  0
   37.8650    9.5400    3.2420 C   0  0  0  0  0
   38.1220   10.4580    4.2600 C   0  0  0  0  0
   39.3780   11.0910    4.3110 C   0  0  0  0  0
   42.1520   14.7340    5.6450 C   0  0  0  0  0
   40.5820   15.2860    3.9430 C   0  0  0  0  0
   39.9130   14.0910    4.1490 C   0  0  0  0  0
   40.3310   10.7440    3.3310 C   0  0  0  0  0
   40.0280    9.8300    2.3390 C   0  0  0  0  0
   40.8810    6.9720    0.1990 O   0  0  0  0  0
   39.4910    5.4390    1.0360 O   0  0  0  0  0
   36.6760    8.8390    3.0710 O   0  0  0  0  0
   41.8578   12.8375    6.6280 H   0  0  0  0  0
   42.2290   16.5772    4.5233 H   0  0  0  0  0
   37.7464    6.8666   -0.1438 H   0  0  0  0  0
   38.9077    8.2175   -0.5065 H   0  0  0  0  0
   36.1634    7.3932    1.5695 H   0  0  0  0  0
   37.3600   10.6823    5.0064 H   0  0  0  0  0
   43.0320   14.9761    6.2409 H   0  0  0  0  0
   40.2181   15.9739    3.1799 H   0  0  0  0  0
   39.0279   13.8698    3.5525 H   0  0  0  0  0
   41.3195   11.2025    3.3560 H   0  0  0  0  0
   40.7938    9.6038    1.5970 H   0  0  0  0  0
   38.5420    5.3712    1.1641 H   0  0  0  0  0
  1  2  1  0  0  0
 12  1  1  0  0  0
  2  3  4  0  0  0
  2 15  4  0  0  0
  3 13  4  0  0  0
 13  4  4  0  0  0
  4 14  4  0  0  0
  5  8  4  0  0  0
 10  5  4  0  0  0
  5 17  4  0  0  0
  7  6  1  0  0  0
  6 18  2  0  0  0
  6 19  1  0  0  0
  8  7  1  0  0  0
  9  8  4  0  0  0
 20  9  4  0  0  0
 11 10  4  0  0  0
 10 20  4  0  0  0
 11 12  4  0  0  0
 12 16  4  0  0  0
 14 15  4  0  0  0
 16 17  4  0  0  0
  3 21  1  0  0  0
  4 22  1  0  0  0
  7 23  1  0  0  0
  7 24  1  0  0  0
  9 25  1  0  0  0
 11 26  1  0  0  0
 13 27  1  0  0  0
 14 28  1  0  0  0
 15 29  1  0  0  0
 16 30  1  0  0  0
 17 31  1  0  0  0
 19 32  1  0  0  0
M  END
$$$$
