### 
### Created by X-TOOL on Mon Aug  2 16:16:09 2021
### 

@<TRIPOS>MOLECULE
6poi_ligand
   31    33     1     0     0
SMALL
GAST_HUCK


@<TRIPOS>ATOM
      1 O11        39.6840   12.0030    5.3350 O.3       1 OVS        -0.2631
      2 C12        40.3420   13.1580    5.1030 C.ar      1 OVS         0.1148
      3 C13        41.4880   13.5190    5.8620 C.ar      1 OVS        -0.0287
      4 C15        41.7120   15.6320    4.6890 C.ar      1 OVS        -0.0724
      5 C20        38.8000    9.1820    2.2340 C.ar      1 OVS        -0.0115
      6 C02        39.7600    6.5350    0.5120 C.2       1 OVS         0.0408
      7 C04        38.5730    7.4770    0.2200 C.3       1 OVS         0.0188
      8 C05        38.1030    8.2030    1.4190 C.2       1 OVS        -0.0232
      9 C06        36.9140    8.0740    1.9710 C.2       1 OVS         0.0742
     10 C08        37.8650    9.5400    3.2420 C.ar      1 OVS         0.1122
     11 C09        38.1220   10.4580    4.2600 C.ar      1 OVS         0.0002
     12 C10        39.3780   11.0910    4.3110 C.ar      1 OVS         0.1056
     13 C14        42.1520   14.7340    5.6450 C.ar      1 OVS        -0.0698
     14 C16        40.5820   15.2860    3.9430 C.ar      1 OVS        -0.0698
     15 C17        39.9130   14.0910    4.1490 C.ar      1 OVS        -0.0287
     16 C18        40.3310   10.7440    3.3310 C.ar      1 OVS        -0.0402
     17 C19        40.0280    9.8300    2.3390 C.ar      1 OVS        -0.0743
     18 O01        40.8810    6.9720    0.1990 O.co2     1 OVS        -0.5673
     19 O03        39.4910    5.4390    1.0360 O.co2     1 OVS        -0.5673
     20 O07        36.6760    8.8390    3.0710 O.3       1 OVS        -0.2742
     21 H1         41.8558   12.8412    6.6238 H         1 OVS         0.0551
     22 H2         42.2262   16.5720    4.5242 H         1 OVS         0.0527
     23 H3         37.7396    6.8783   -0.1763 H         1 OVS         0.0521
     24 H4         38.8871    8.2131   -0.5347 H         1 OVS         0.0521
     25 H5         36.1641    7.3938    1.5699 H         1 OVS         0.0883
     26 H6         37.3642   10.6811    5.0023 H         1 OVS         0.0477
     27 H7         43.0272   14.9748    6.2376 H         1 OVS         0.0590
     28 H8         40.2201   15.9702    3.1841 H         1 OVS         0.0590
     29 H9         39.0328   13.8710    3.5557 H         1 OVS         0.0551
     30 H10        41.3141   11.2000    3.3559 H         1 OVS         0.0485
     31 H11        40.7896    9.6050    1.6011 H         1 OVS         0.0540
@<TRIPOS>BOND
     1    1    2 1  
     2   12    1 1  
     3    2    3 ar 
     4    2   15 ar 
     5    3   13 ar 
     6   13    4 ar 
     7    4   14 ar 
     8    5    8 1  
     9   10    5 ar 
    10    5   17 ar 
    11    7    6 1  
    12    6   18 ar 
    13    6   19 ar 
    14    8    7 1  
    15    9    8 2  
    16   20    9 1  
    17   11   10 ar 
    18   10   20 1  
    19   11   12 ar 
    20   12   16 ar 
    21   14   15 ar 
    22   16   17 ar 
    23    3   21 1  
    24    4   22 1  
    25    7   23 1  
    26    7   24 1  
    27    9   25 1  
    28   11   26 1  
    29   13   27 1  
    30   14   28 1  
    31   15   29 1  
    32   16   30 1  
    33   17   31 1  
@<TRIPOS>SUBSTRUCTURE
     1 OVS         1

