### 
### Created by X-TOOL on Mon Sep 10 21:13:33 2018
### 

@<TRIPOS>MOLECULE
5m7u_ligand
   53    54     1     0     0
SMALL
GAST_HUCK


@<TRIPOS>ATOM
      1 C4        -15.9950    3.1970   37.3090 C.3       1 XHA         0.0257
      2 C14       -13.6370    8.0740   33.1540 C.ar      1 XHA        -0.0378
      3 C5        -15.1460    1.9200   37.4000 C.3       1 XHA         0.1308
      4 C6        -13.7800    2.4420   37.8660 C.3       1 XHA         0.1309
      5 C11       -15.8810    7.2870   36.1150 C.3       1 XHA        -0.0080
      6 C7        -14.1760    3.5010   38.8930 C.3       1 XHA         0.0324
      7 C8        -13.0580    4.4770   39.2320 C.3       1 XHA         0.0894
      8 C9        -14.9830    5.4230   37.5870 C.3       1 XHA        -0.0291
      9 C10       -15.9850    5.8410   36.5280 C.3       1 XHA        -0.0023
     10 C12       -15.3830    7.4630   34.7000 C.ar      1 XHA        -0.0138
     11 C13       -14.0930    7.9140   34.4500 C.ar      1 XHA        -0.0316
     12 N1        -18.8890    2.0880   39.3550 N.am      1 XHA        -0.2899
     13 N2        -15.3310    4.1540   38.2340 N.4       1 XHA         0.2467
     14 C3        -17.4800    2.9910   37.6260 C.3       1 XHA         0.0826
     15 C1        -19.3220    1.7880   40.7070 C.3       1 XHA         0.0196
     16 C2        -17.7510    2.7220   39.0910 C.2       1 XHA         0.1813
     17 O1        -16.9660    3.0850   39.9680 O.2       1 XHA        -0.3969
     18 O2        -15.6970    0.9800   38.3130 O.3       1 XHA        -0.3832
     19 O3        -12.9590    1.4250   38.4220 O.3       1 XHA        -0.3833
     20 O4        -12.3870    4.9550   38.0770 O.3       1 XHA        -0.3894
     21 C15       -14.4540    7.7800   32.0780 C.ar      1 XHA        -0.0377
     22 C16       -15.7390    7.3240   32.3110 C.ar      1 XHA         0.0409
     23 C17       -16.6380    7.0110   31.1540 C.3       1 XHA         0.3750
     24 F1        -16.4460    7.8340   30.1240 F         1 XHA        -0.2204
     25 F2        -16.4580    5.7800   30.6790 F         1 XHA        -0.2204
     26 F3        -17.9330    7.1010   31.4590 F         1 XHA        -0.2204
     27 C18       -16.1950    7.1700   33.6100 C.ar      1 XHA        -0.0308
     28 H1        -15.9344    3.5894   36.2832 H         1 XHA         0.0904
     29 H2        -12.6292    8.4334   32.9802 H         1 XHA         0.0683
     30 H3        -15.0593    1.4441   36.4121 H         1 XHA         0.0680
     31 H4        -13.2392    2.9033   37.0265 H         1 XHA         0.0679
     32 H5        -15.1851    7.7971   36.7973 H         1 XHA         0.0433
     33 H6        -16.8769    7.7470   36.1956 H         1 XHA         0.0433
     34 H7        -14.4964    3.0170   39.8274 H         1 XHA         0.0901
     35 H8        -12.3284    3.9674   39.8785 H         1 XHA         0.0614
     36 H9        -13.4888    5.3343   39.7700 H         1 XHA         0.0614
     37 H10       -14.9375    6.2080   38.3562 H         1 XHA         0.0816
     38 H11       -13.9960    5.3161   37.1133 H         1 XHA         0.0816
     39 H12       -15.8264    5.2156   35.6371 H         1 XHA         0.0339
     40 H13       -16.9968    5.6669   36.9228 H         1 XHA         0.0339
     41 H14       -13.4357    8.1434   35.2809 H         1 XHA         0.0803
     42 H15       -19.4700    1.8065   38.5913 H         1 XHA         0.1847
     43 H16       -15.9966    4.3760   38.9577 H         1 XHA         0.2043
     44 H17       -17.8458    2.1344   37.0409 H         1 XHA         0.0560
     45 H18       -18.0285    3.8977   37.3309 H         1 XHA         0.0560
     46 H19       -20.2876    1.2621   40.6745 H         1 XHA         0.0484
     47 H20       -19.4336    2.7248   41.2727 H         1 XHA         0.0484
     48 H21       -18.5732    1.1497   41.1987 H         1 XHA         0.0484
     49 H22       -15.1085    0.2389   38.3965 H         1 XHA         0.2102
     50 H23       -12.7399    0.7926   37.7478 H         1 XHA         0.2102
     51 H24       -12.0049    4.2224   37.6082 H         1 XHA         0.2097
     52 H25       -14.0919    7.9053   31.0640 H         1 XHA         0.0802
     53 H26       -17.2047    6.8141   33.7800 H         1 XHA         0.0780
@<TRIPOS>BOND
     1    1    3 1  
     2    1   13 1  
     3   14    1 1  
     4   11    2 ar 
     5    2   21 ar 
     6    3    4 1  
     7    3   18 1  
     8    6    4 1  
     9    4   19 1  
    10    9    5 1  
    11    5   10 1  
    12    6    7 1  
    13   13    6 1  
    14    7   20 1  
    15    8    9 1  
    16   13    8 1  
    17   10   11 ar 
    18   10   27 ar 
    19   12   15 1  
    20   16   12 am 
    21   14   16 1  
    22   16   17 2  
    23   21   22 ar 
    24   22   23 1  
    25   22   27 ar 
    26   23   24 1  
    27   23   25 1  
    28   23   26 1  
    29    1   28 1  
    30    2   29 1  
    31    3   30 1  
    32    4   31 1  
    33    5   32 1  
    34    5   33 1  
    35    6   34 1  
    36    7   35 1  
    37    7   36 1  
    38    8   37 1  
    39    8   38 1  
    40    9   39 1  
    41    9   40 1  
    42   11   41 1  
    43   12   42 1  
    44   13   43 1  
    45   14   44 1  
    46   14   45 1  
    47   15   46 1  
    48   15   47 1  
    49   15   48 1  
    50   18   49 1  
    51   19   50 1  
    52   20   51 1  
    53   21   52 1  
    54   27   53 1  
@<TRIPOS>SUBSTRUCTURE
     1 XHA         1

