5m7u_ligand
  -I-interpret- 

 53 54  0  0  0  0  0  0  0  0999 V2000
  -15.9950    3.1970   37.3090 C   0  0  0  0  0
  -13.6370    8.0740   33.1540 C   0  0  0  0  0
  -15.1460    1.9200   37.4000 C   0  0  0  0  0
  -13.7800    2.4420   37.8660 C   0  0  0  0  0
  -15.8810    7.2870   36.1150 C   0  0  0  0  0
  -14.1760    3.5010   38.8930 C   0  0  0  0  0
  -13.0580    4.4770   39.2320 C   0  0  0  0  0
  -14.9830    5.4230   37.5870 C   0  0  0  0  0
  -15.9850    5.8410   36.5280 C   0  0  0  0  0
  -15.3830    7.4630   34.7000 C   0  0  0  0  0
  -14.0930    7.9140   34.4500 C   0  0  0  0  0
  -18.8890    2.0880   39.3550 N   0  0  0  0  0
  -15.3310    4.1540   38.2340 N   0  3  0  0  0
  -17.4800    2.9910   37.6260 C   0  0  0  0  0
  -19.3220    1.7880   40.7070 C   0  0  0  0  0
  -17.7510    2.7220   39.0910 C   0  0  0  0  0
  -16.9660    3.0850   39.9680 O   0  0  0  0  0
  -15.6970    0.9800   38.3130 O   0  0  0  0  0
  -12.9590    1.4250   38.4220 O   0  0  0  0  0
  -12.3870    4.9550   38.0770 O   0  0  0  0  0
  -14.4540    7.7800   32.0780 C   0  0  0  0  0
  -15.7390    7.3240   32.3110 C   0  0  0  0  0
  -16.6380    7.0110   31.1540 C   0  0  0  0  0
  -16.4460    7.8340   30.1240 F   0  0  0  0  0
  -16.4580    5.7800   30.6790 F   0  0  0  0  0
  -17.9330    7.1010   31.4590 F   0  0  0  0  0
  -16.1950    7.1700   33.6100 C   0  0  0  0  0
  -16.0296    3.5687   36.2849 H   0  0  0  0  0
  -12.6236    8.4354   32.9792 H   0  0  0  0  0
  -15.0925    1.3771   36.4564 H   0  0  0  0  0
  -13.1682    2.8305   37.0519 H   0  0  0  0  0
  -15.1669    7.7717   36.7808 H   0  0  0  0  0
  -16.8793    7.7209   36.1718 H   0  0  0  0  0
  -14.4097    3.0768   39.8695 H   0  0  0  0  0
  -12.3302    3.9533   39.8518 H   0  0  0  0  0
  -13.5008    5.3323   39.7424 H   0  0  0  0  0
  -14.9699    6.1956   38.3558 H   0  0  0  0  0
  -14.0173    5.2933   37.0984 H   0  0  0  0  0
  -15.7863    5.2384   35.6417 H   0  0  0  0  0
  -16.9790    5.6984   36.9518 H   0  0  0  0  0
  -13.4320    8.1446   35.2855 H   0  0  0  0  0
  -19.4816    1.8009   38.5760 H   0  0  0  0  0
  -16.0005    4.4107   38.9595 H   0  0  0  0  0
  -17.8179    2.1202   37.0643 H   0  0  0  0  0
  -18.0033    3.9090   37.3585 H   0  0  0  0  0
  -18.5792    1.1555   41.1931 H   0  0  0  0  0
  -19.4321    2.7170   41.2664 H   0  0  0  0  0
  -20.2788    1.2669   40.6735 H   0  0  0  0  0
  -16.5480    0.6791   37.9861 H   0  0  0  0  0
  -12.7376    0.7859   37.7407 H   0  0  0  0  0
  -11.6936    5.5645   38.3404 H   0  0  0  0  0
  -14.0899    7.9060   31.0584 H   0  0  0  0  0
  -17.2103    6.8121   33.7810 H   0  0  0  0  0
  1  3  1  0  0  0
  1 13  1  0  0  0
 14  1  1  0  0  0
 11  2  4  0  0  0
  2 21  4  0  0  0
  3  4  1  0  0  0
  3 18  1  0  0  0
  6  4  1  0  0  0
  4 19  1  0  0  0
  9  5  1  0  0  0
  5 10  1  0  0  0
  6  7  1  0  0  0
 13  6  1  0  0  0
  7 20  1  0  0  0
  8  9  1  0  0  0
 13  8  1  0  0  0
 10 11  4  0  0  0
 10 27  4  0  0  0
 12 15  1  0  0  0
 16 12  1  0  0  0
 14 16  1  0  0  0
 16 17  2  0  0  0
 21 22  4  0  0  0
 22 23  1  0  0  0
 22 27  4  0  0  0
 23 24  1  0  0  0
 23 25  1  0  0  0
 23 26  1  0  0  0
  1 28  1  0  0  0
  2 29  1  0  0  0
  3 30  1  0  0  0
  4 31  1  0  0  0
  5 32  1  0  0  0
  5 33  1  0  0  0
  6 34  1  0  0  0
  7 35  1  0  0  0
  7 36  1  0  0  0
  8 37  1  0  0  0
  8 38  1  0  0  0
  9 39  1  0  0  0
  9 40  1  0  0  0
 11 41  1  0  0  0
 12 42  1  0  0  0
 13 43  1  0  0  0
 14 44  1  0  0  0
 14 45  1  0  0  0
 15 46  1  0  0  0
 15 47  1  0  0  0
 15 48  1  0  0  0
 18 49  1  0  0  0
 19 50  1  0  0  0
 20 51  1  0  0  0
 21 52  1  0  0  0
 27 53  1  0  0  0
M  END
$$$$
