### 
### Created by X-TOOL on Mon Sep 10 21:13:26 2018
### 

@<TRIPOS>MOLECULE
5fcz_ligand
   29    29     1     0     0
SMALL
GAST_HUCK


@<TRIPOS>ATOM
      1 C1         -5.7930   66.6320   10.2830 C.3       1 TNX         0.0759
      2 S7         -5.3840   64.1840    9.0010 S.2       1 TNX        -0.2841
      3 C2         -6.1470   66.7350    9.0200 C.3       1 TNX         0.0997
      4 C3         -5.2980   67.5750    8.0570 C.3       1 TNX         0.1107
      5 C4         -4.0550   68.0300    8.8600 C.3       1 TNX         0.1117
      6 C5         -3.5130   66.8540    9.7030 C.3       1 TNX         0.1100
      7 C6         -2.3790   67.3510   10.5870 C.3       1 TNX         0.0729
      8 C7         -6.8040   64.6540    8.2640 C.2       1 TNX         0.0521
      9 C8         -7.5580   63.7200    7.3410 C.3       1 TNX         0.0069
     10 N2         -7.1910   65.9040    8.4900 N.am      1 TNX        -0.2882
     11 O3         -6.0540   68.6280    7.5370 O.3       1 TNX        -0.3865
     12 O4         -3.0930   68.4710    7.9570 O.3       1 TNX        -0.3865
     13 O5         -4.5070   66.2840   10.5760 O.3       1 TNX        -0.3690
     14 O6         -1.5660   66.2670   10.9470 O.3       1 TNX        -0.3924
     15 H1         -6.4459   65.8748   10.7417 H         1 TNX         0.0586
     16 H2         -5.9789   67.6093   10.7523 H         1 TNX         0.0586
     17 H3         -6.8377   67.5658    9.2265 H         1 TNX         0.0635
     18 H4         -4.9663   66.9476    7.2165 H         1 TNX         0.0646
     19 H5         -4.3322   68.8559    9.5316 H         1 TNX         0.0647
     20 H6         -3.1418   66.0741    9.0219 H         1 TNX         0.0646
     21 H7         -2.7953   67.8154   11.4931 H         1 TNX         0.0584
     22 H8         -1.7812   68.0923   10.0365 H         1 TNX         0.0584
     23 H9         -8.4602   64.2250    6.9655 H         1 TNX         0.0485
     24 H10        -7.8480   62.8139    7.8932 H         1 TNX         0.0485
     25 H11        -6.9136   63.4426    6.4938 H         1 TNX         0.0485
     26 H12        -8.1176   66.2338    8.3090 H         1 TNX         0.2005
     27 H13        -6.7965   68.2775    7.0592 H         1 TNX         0.2100
     28 H14        -2.3237   68.7619    8.4325 H         1 TNX         0.2100
     29 H15        -1.2081   65.8670   10.1632 H         1 TNX         0.2095
@<TRIPOS>BOND
     1    3    1 1  
     2    1   13 1  
     3    8    2 2  
     4    3    4 1  
     5   10    3 1  
     6    4    5 1  
     7    4   11 1  
     8    5    6 1  
     9    5   12 1  
    10    6    7 1  
    11   13    6 1  
    12    7   14 1  
    13    8    9 1  
    14    8   10 am 
    15    1   15 1  
    16    1   16 1  
    17    3   17 1  
    18    4   18 1  
    19    5   19 1  
    20    6   20 1  
    21    7   21 1  
    22    7   22 1  
    23    9   23 1  
    24    9   24 1  
    25    9   25 1  
    26   10   26 1  
    27   11   27 1  
    28   12   28 1  
    29   14   29 1  
@<TRIPOS>SUBSTRUCTURE
     1 TNX         1

