5fcz_ligand
  -I-interpret- 

 29 29  0  0  0  0  0  0  0  0999 V2000
   -5.7930   66.6320   10.2830 C   0  0  0  0  0
   -5.3840   64.1840    9.0010 S   0  0  0  0  0
   -6.1470   66.7350    9.0200 C   0  0  0  0  0
   -5.2980   67.5750    8.0570 C   0  0  0  0  0
   -4.0550   68.0300    8.8600 C   0  0  0  0  0
   -3.5130   66.8540    9.7030 C   0  0  0  0  0
   -2.3790   67.3510   10.5870 C   0  0  0  0  0
   -6.8040   64.6540    8.2640 C   0  0  0  0  0
   -7.5580   63.7200    7.3410 C   0  0  0  0  0
   -7.1910   65.9040    8.4900 N   0  0  0  0  0
   -6.0540   68.6280    7.5370 O   0  0  0  0  0
   -3.0930   68.4710    7.9570 O   0  0  0  0  0
   -4.5070   66.2840   10.5760 O   0  0  0  0  0
   -1.5660   66.2670   10.9470 O   0  0  0  0  0
   -6.4039   65.8230   10.6836 H   0  0  0  0  0
   -5.9164   67.6337   10.6946 H   0  0  0  0  0
   -6.8403   67.5321    9.2884 H   0  0  0  0  0
   -4.9690   67.0109    7.1843 H   0  0  0  0  0
   -4.3174   68.8389    9.5419 H   0  0  0  0  0
   -3.1874   66.0911    8.9959 H   0  0  0  0  0
   -2.7904   67.8135   11.4842 H   0  0  0  0  0
   -1.7872   68.0874   10.0433 H   0  0  0  0  0
   -6.9184   63.4458    6.5020 H   0  0  0  0  0
   -7.8447   62.8227    7.8893 H   0  0  0  0  0
   -8.4517   64.2215    6.9696 H   0  0  0  0  0
   -8.1361   66.2404    8.3054 H   0  0  0  0  0
   -6.8043   68.2738    7.0542 H   0  0  0  0  0
   -3.4481   69.2004    7.4437 H   0  0  0  0  0
   -0.8492   66.5775   11.5051 H   0  0  0  0  0
  3  1  1  0  0  0
  1 13  1  0  0  0
  8  2  2  0  0  0
  3  4  1  0  0  0
 10  3  1  0  0  0
  4  5  1  0  0  0
  4 11  1  0  0  0
  5  6  1  0  0  0
  5 12  1  0  0  0
  6  7  1  0  0  0
 13  6  1  0  0  0
  7 14  1  0  0  0
  8  9  1  0  0  0
  8 10  1  0  0  0
  1 15  1  0  0  0
  1 16  1  0  0  0
  3 17  1  0  0  0
  4 18  1  0  0  0
  5 19  1  0  0  0
  6 20  1  0  0  0
  7 21  1  0  0  0
  7 22  1  0  0  0
  9 23  1  0  0  0
  9 24  1  0  0  0
  9 25  1  0  0  0
 10 26  1  0  0  0
 11 27  1  0  0  0
 12 28  1  0  0  0
 14 29  1  0  0  0
M  END
$$$$
