4daf_ligand
     RDKit          3D

 27 28  0  0  0  0  0  0  0  0999 V2000
   10.2456  -12.8128   16.9258 O   0  0  0  0  0  0  0  0  0  0  0  0
   11.0061  -11.7585   16.3699 C   0  0  0  0  0  0  0  0  0  0  0  0
   12.2524  -12.0082   15.9374 N   0  0  0  0  0  0  0  0  0  0  0  0
   13.0048  -11.0707   15.3579 C   0  0  0  0  0  0  0  0  0  0  0  0
   14.3259  -11.3801   14.8990 N   0  0  0  0  0  0  0  0  0  0  0  0
   12.5364   -9.8246   15.2178 N   0  0  0  0  0  0  0  0  0  0  0  0
   11.3020   -9.4904   15.6303 C   0  0  0  0  0  0  0  0  0  0  0  0
   10.4950  -10.4580   16.2216 C   0  0  0  0  0  0  0  0  0  0  0  0
    9.1921  -10.0315   16.6400 C   0  0  0  0  0  0  0  0  0  0  0  0
    8.3091  -10.9005   17.2847 O   0  0  0  0  0  0  0  0  0  0  0  0
   10.8829   -8.2574   15.4529 N   0  0  0  0  0  0  0  0  0  0  0  0
    9.6810   -7.8588   15.8346 N   0  0  0  0  0  0  0  0  0  0  0  0
    8.8288   -8.6972   16.4177 C   0  0  0  0  0  0  0  0  0  0  0  0
    7.4499   -8.1825   16.8665 C   0  0  1  0  0  0  0  0  0  0  0  0
    6.3978   -8.5884   15.8500 C   0  0  0  0  0  0  0  0  0  0  0  0
    6.9354   -8.6641   18.1810 C   0  0  0  0  0  0  0  0  0  0  0  0
    7.6670   -8.6213   19.2001 O   0  0  0  0  0  0  0  0  0  0  0  0
    5.8643   -9.2652   18.2354 O   0  0  0  0  0  0  0  0  0  0  0  0
   12.6370  -12.9455   16.0557 H   0  0  0  0  0  0  0  0  0  0  0  0
   14.8993  -10.6546   14.4686 H   0  0  0  0  0  0  0  0  0  0  0  0
   14.6933  -12.3260   15.0026 H   0  0  0  0  0  0  0  0  0  0  0  0
    7.4915  -10.4370   17.4805 H   0  0  0  0  0  0  0  0  0  0  0  0
    7.6145   -7.1090   16.9592 H   0  0  0  0  0  0  0  0  0  0  0  0
    6.6385   -8.1458   14.8834 H   0  0  0  0  0  0  0  0  0  0  0  0
    6.3816   -9.6745   15.7598 H   0  0  0  0  0  0  0  0  0  0  0  0
    5.4207   -8.2352   16.1796 H   0  0  0  0  0  0  0  0  0  0  0  0
    8.4955   -8.1893   18.9799 H   0  0  0  0  0  0  0  0  0  0  0  0
  1  2  2  0
  2  3  1  0
  2  8  1  0
  3  4  1  0
  4  5  1  0
  4  6  2  0
  6  7  1  0
  7  8  2  0
  7 11  1  0
  8  9  1  0
  9 10  1  0
  9 13  2  0
 11 12  2  0
 12 13  1  0
 13 14  1  0
 14 15  1  0
 14 16  1  0
 16 17  1  0
 16 18  2  0
  3 19  1  0
  5 20  1  0
  5 21  1  0
 10 22  1  0
 14 23  1  1
 15 24  1  0
 15 25  1  0
 15 26  1  0
 17 27  1  0
M  END
