### 
### Created by X-TOOL on Mon Sep 10 21:13:13 2018
### 

@<TRIPOS>MOLECULE
4m0f_ligand
   72    76     1     0     0
SMALL
GAST_HUCK


@<TRIPOS>ATOM
      1 C26       -13.8010  -46.0800   29.2290 C.3       1 1YK        -0.0287
      2 C14       -13.5060  -44.6540   29.6660 C.3       1 1YK         0.1179
      3 C15       -13.2850  -44.5880   31.1970 C.3       1 1YK        -0.0153
      4 C16       -11.8730  -45.0800   31.5050 C.3       1 1YK        -0.0302
      5 C17       -10.8190  -44.2290   30.8480 C.3       1 1YK         0.0582
      6 C18       -10.9420  -44.3380   29.3320 C.3       1 1YK         0.0999
      7 C13       -12.3720  -43.9310   28.9070 C.3       1 1YK         0.1164
      8 C12       -12.5930  -44.1290   27.4120 C.3       1 1YK         0.0048
      9 C11       -14.0220  -43.7290   27.1070 C.2       1 1YK         0.0473
     10 C10       -14.9390  -43.7000   28.0640 C.2       1 1YK         0.0874
     11 C9        -16.3700  -43.3010   27.7750 C.2       1 1YK         0.0007
     12 C8        -16.7060  -43.0170   26.4860 C.2       1 1YK         0.1307
     13 O6        -15.7500  -43.0870   25.4600 O.3       1 1YK        -0.2149
     14 C7        -14.4290  -43.4150   25.7240 C.2       1 1YK         0.2451
     15 O7        -13.6410  -43.4360   24.8040 O.2       1 1YK        -0.4000
     16 C1        -18.0650  -42.6030   26.0120 C.ar      1 1YK        -0.0018
     17 C6        -19.3070  -42.4400   26.7760 C.ar      1 1YK        -0.0367
     18 C5        -20.4450  -42.0400   26.1000 C.ar      1 1YK         0.1164
     19 C4        -20.5050  -41.7800   24.8360 C.ar      1 1YK         0.1530
     20 C3        -19.4590  -41.9100   24.0670 C.ar      1 1YK         0.1164
     21 C2        -18.2440  -42.3050   24.5940 C.ar      1 1YK        -0.0367
     22 O3        -19.4600  -41.6520   22.6780 O.3       1 1YK        -0.3270
     23 C27       -19.3230  -42.8140   21.8740 C.3       1 1YK         0.0565
     24 O4        -21.7860  -41.4020   24.3690 O.3       1 1YK        -0.3253
     25 C28       -21.9190  -40.3030   23.4860 C.3       1 1YK         0.0558
     26 O5        -21.6310  -41.8800   26.8170 O.3       1 1YK        -0.3270
     27 C29       -21.7840  -42.8390   27.8370 C.3       1 1YK         0.0565
     28 O8        -14.6850  -43.9790   29.4080 O.3       1 1YK        -0.3140
     29 O9        -12.5200  -42.5530   29.1890 O.3       1 1YK        -0.3846
     30 C19        -9.8860  -43.4180   28.7620 C.2       1 1YK         0.2197
     31 O1        -10.0920  -42.6680   27.8300 O.2       1 1YK        -0.2792
     32 C20        -8.5260  -43.4080   29.3440 C.2       1 1YK         0.0528
     33 C21        -8.2960  -43.9450   30.5660 C.2       1 1YK        -0.0576
     34 C22        -9.4100  -44.5900   31.4260 C.3       1 1YK        -0.0222
     35 C24        -9.2920  -44.0230   32.8260 C.3       1 1YK        -0.0869
     36 C23        -9.1320  -46.0810   31.6060 C.3       1 1YK        -0.0869
     37 C25       -10.5950  -45.6960   28.7460 C.3       1 1YK        -0.0491
     38 O2        -11.0780  -42.8930   31.2160 O.3       1 1YK        -0.3993
     39 H1        -14.6217  -46.4876   29.8376 H         1 1YK         0.0262
     40 H2        -12.9016  -46.6986   29.3648 H         1 1YK         0.0262
     41 H3        -14.0932  -46.0855   28.1685 H         1 1YK         0.0262
     42 H4        -14.0202  -45.2287   31.7059 H         1 1YK         0.0298
     43 H5        -13.4002  -43.5506   31.5440 H         1 1YK         0.0298
     44 H6        -11.7708  -46.1134   31.1423 H         1 1YK         0.0283
     45 H7        -11.7192  -45.0566   32.5939 H         1 1YK         0.0283
     46 H8        -12.4331  -45.1840   27.1450 H         1 1YK         0.0381
     47 H9        -11.8961  -43.4968   26.8422 H         1 1YK         0.0381
     48 H10       -17.1085  -43.2428   28.5733 H         1 1YK         0.0434
     49 H11       -19.3318  -42.6284   27.8432 H         1 1YK         0.0454
     50 H12       -17.3922  -42.3970   23.9298 H         1 1YK         0.0454
     51 H13       -19.3331  -42.5282   20.8118 H         1 1YK         0.0572
     52 H14       -20.1580  -43.5008   22.0768 H         1 1YK         0.0572
     53 H15       -18.3718  -43.3134   22.1103 H         1 1YK         0.0572
     54 H16       -22.9804  -40.1614   23.2342 H         1 1YK         0.0571
     55 H17       -21.3472  -40.4996   22.5671 H         1 1YK         0.0571
     56 H18       -21.5328  -39.3943   23.9708 H         1 1YK         0.0571
     57 H19       -22.7326  -42.6638   28.3657 H         1 1YK         0.0572
     58 H20       -20.9478  -42.7559   28.5469 H         1 1YK         0.0572
     59 H21       -21.7912  -43.8463   27.3952 H         1 1YK         0.0572
     60 H22       -13.3919  -42.2714   28.9380 H         1 1YK         0.2103
     61 H23        -7.7028  -42.9652   28.7852 H         1 1YK         0.1458
     62 H24        -7.2816  -43.9220   30.9614 H         1 1YK         0.0662
     63 H25        -8.3040  -44.2721   33.2404 H         1 1YK         0.0118
     64 H26       -10.0768  -44.4553   33.4641 H         1 1YK         0.0118
     65 H27        -9.4095  -42.9299   32.7900 H         1 1YK         0.0118
     66 H28        -9.1957  -46.5862   30.6309 H         1 1YK         0.0118
     67 H29        -9.8760  -46.5126   32.2917 H         1 1YK         0.0118
     68 H30        -8.1242  -46.2182   32.0249 H         1 1YK         0.0118
     69 H31        -9.5770  -45.9783   29.0526 H         1 1YK         0.0222
     70 H32       -10.6467  -45.6458   27.6484 H         1 1YK         0.0222
     71 H33       -11.3100  -46.4472   29.1128 H         1 1YK         0.0222
     72 H34       -11.9555  -42.6544   30.9411 H         1 1YK         0.2086
@<TRIPOS>BOND
     1    1    2 1  
     2    2    3 1  
     3    2    7 1  
     4    2   28 1  
     5    3    4 1  
     6    4    5 1  
     7    5    6 1  
     8    5   34 1  
     9    5   38 1  
    10    6    7 1  
    11    6   30 1  
    12    6   37 1  
    13    7    8 1  
    14    7   29 1  
    15    8    9 1  
    16    9   10 2  
    17    9   14 1  
    18   10   11 1  
    19   10   28 1  
    20   11   12 2  
    21   12   13 1  
    22   12   16 1  
    23   13   14 1  
    24   14   15 2  
    25   16   17 ar 
    26   16   21 ar 
    27   17   18 ar 
    28   18   19 ar 
    29   18   26 1  
    30   19   20 ar 
    31   19   24 1  
    32   20   21 ar 
    33   20   22 1  
    34   22   23 1  
    35   24   25 1  
    36   26   27 1  
    37   30   31 2  
    38   30   32 1  
    39   32   33 2  
    40   33   34 1  
    41   34   35 1  
    42   34   36 1  
    43    1   39 1  
    44    1   40 1  
    45    1   41 1  
    46    3   42 1  
    47    3   43 1  
    48    4   44 1  
    49    4   45 1  
    50    8   46 1  
    51    8   47 1  
    52   11   48 1  
    53   17   49 1  
    54   21   50 1  
    55   23   51 1  
    56   23   52 1  
    57   23   53 1  
    58   25   54 1  
    59   25   55 1  
    60   25   56 1  
    61   27   57 1  
    62   27   58 1  
    63   27   59 1  
    64   29   60 1  
    65   32   61 1  
    66   33   62 1  
    67   35   63 1  
    68   35   64 1  
    69   35   65 1  
    70   36   66 1  
    71   36   67 1  
    72   36   68 1  
    73   37   69 1  
    74   37   70 1  
    75   37   71 1  
    76   38   72 1  
@<TRIPOS>SUBSTRUCTURE
     1 1YK         1

