4m0f_ligand
  -I-interpret- 

 72 76  0  0  0  0  0  0  0  0999 V2000
  -13.8010  -46.0800   29.2290 C   0  0  0  0  0
  -13.5060  -44.6540   29.6660 C   0  0  0  0  0
  -13.2850  -44.5880   31.1970 C   0  0  0  0  0
  -11.8730  -45.0800   31.5050 C   0  0  0  0  0
  -10.8190  -44.2290   30.8480 C   0  0  0  0  0
  -10.9420  -44.3380   29.3320 C   0  0  0  0  0
  -12.3720  -43.9310   28.9070 C   0  0  0  0  0
  -12.5930  -44.1290   27.4120 C   0  0  0  0  0
  -14.0220  -43.7290   27.1070 C   0  0  0  0  0
  -14.9390  -43.7000   28.0640 C   0  0  0  0  0
  -16.3700  -43.3010   27.7750 C   0  0  0  0  0
  -16.7060  -43.0170   26.4860 C   0  0  0  0  0
  -15.7500  -43.0870   25.4600 O   0  0  0  0  0
  -14.4290  -43.4150   25.7240 C   0  0  0  0  0
  -13.6410  -43.4360   24.8040 O   0  0  0  0  0
  -18.0650  -42.6030   26.0120 C   0  0  0  0  0
  -19.3070  -42.4400   26.7760 C   0  0  0  0  0
  -20.4450  -42.0400   26.1000 C   0  0  0  0  0
  -20.5050  -41.7800   24.8360 C   0  0  0  0  0
  -19.4590  -41.9100   24.0670 C   0  0  0  0  0
  -18.2440  -42.3050   24.5940 C   0  0  0  0  0
  -19.4600  -41.6520   22.6780 O   0  0  0  0  0
  -19.3230  -42.8140   21.8740 C   0  0  0  0  0
  -21.7860  -41.4020   24.3690 O   0  0  0  0  0
  -21.9190  -40.3030   23.4860 C   0  0  0  0  0
  -21.6310  -41.8800   26.8170 O   0  0  0  0  0
  -21.7840  -42.8390   27.8370 C   0  0  0  0  0
  -14.6850  -43.9790   29.4080 O   0  0  0  0  0
  -12.5200  -42.5530   29.1890 O   0  0  0  0  0
   -9.8860  -43.4180   28.7620 C   0  0  0  0  0
  -10.0920  -42.6680   27.8300 O   0  0  0  0  0
   -8.5260  -43.4080   29.3440 C   0  0  0  0  0
   -8.2960  -43.9450   30.5660 C   0  0  0  0  0
   -9.4100  -44.5900   31.4260 C   0  0  0  0  0
   -9.2920  -44.0230   32.8260 C   0  0  0  0  0
   -9.1320  -46.0810   31.6060 C   0  0  0  0  0
  -10.5950  -45.6960   28.7460 C   0  0  0  0  0
  -11.0780  -42.8930   31.2160 O   0  0  0  0  0
  -14.6362  -46.4712   29.8099 H   0  0  0  0  0
  -14.0580  -46.0882   28.1698 H   0  0  0  0  0
  -12.9195  -46.6993   29.3951 H   0  0  0  0  0
  -14.0167  -45.2157   31.7057 H   0  0  0  0  0
  -13.4059  -43.5626   31.5462 H   0  0  0  0  0
  -11.7764  -46.0958   31.1218 H   0  0  0  0  0
  -11.7245  -45.0315   32.5837 H   0  0  0  0  0
  -12.4206  -45.1691   27.1353 H   0  0  0  0  0
  -11.8953  -43.5183   26.8390 H   0  0  0  0  0
  -17.1091  -43.2427   28.5740 H   0  0  0  0  0
  -19.3320  -42.6294   27.8491 H   0  0  0  0  0
  -17.3875  -42.3975   23.9262 H   0  0  0  0  0
  -18.3802  -43.3079   22.1091 H   0  0  0  0  0
  -20.1509  -43.4936   22.0759 H   0  0  0  0  0
  -19.3331  -42.5295   20.8218 H   0  0  0  0  0
  -21.5360  -39.4033   23.9675 H   0  0  0  0  0
  -21.3520  -40.4991   22.5760 H   0  0  0  0  0
  -22.9710  -40.1637   23.2372 H   0  0  0  0  0
  -21.7909  -43.8366   27.3979 H   0  0  0  0  0
  -20.9549  -42.7557   28.5396 H   0  0  0  0  0
  -22.7242  -42.6643   28.3601 H   0  0  0  0  0
  -12.3849  -42.4033   30.1276 H   0  0  0  0  0
   -7.7021  -42.9648   28.7847 H   0  0  0  0  0
   -7.2807  -43.9220   30.9618 H   0  0  0  0  0
   -8.3096  -44.2634   33.2324 H   0  0  0  0  0
   -9.4168  -42.9408   32.7900 H   0  0  0  0  0
  -10.0650  -44.4583   33.4593 H   0  0  0  0  0
   -9.1058  -46.5649   30.6296 H   0  0  0  0  0
   -8.1714  -46.2127   32.1041 H   0  0  0  0  0
   -9.9211  -46.5258   32.2123 H   0  0  0  0  0
  -11.3042  -46.4394   29.1101 H   0  0  0  0  0
  -10.6466  -45.6449   27.6584 H   0  0  0  0  0
   -9.5862  -45.9746   29.0505 H   0  0  0  0  0
  -11.9377  -42.6304   30.8791 H   0  0  0  0  0
  1  2  1  0  0  0
  2  3  1  0  0  0
  2  7  1  0  0  0
  2 28  1  0  0  0
  3  4  1  0  0  0
  4  5  1  0  0  0
  5  6  1  0  0  0
  5 34  1  0  0  0
  5 38  1  0  0  0
  6  7  1  0  0  0
  6 30  1  0  0  0
  6 37  1  0  0  0
  7  8  1  0  0  0
  7 29  1  0  0  0
  8  9  1  0  0  0
  9 10  2  0  0  0
  9 14  1  0  0  0
 10 11  1  0  0  0
 10 28  1  0  0  0
 11 12  2  0  0  0
 12 13  1  0  0  0
 12 16  1  0  0  0
 13 14  1  0  0  0
 14 15  2  0  0  0
 16 17  4  0  0  0
 16 21  4  0  0  0
 17 18  4  0  0  0
 18 19  4  0  0  0
 18 26  1  0  0  0
 19 20  4  0  0  0
 19 24  1  0  0  0
 20 21  4  0  0  0
 20 22  1  0  0  0
 22 23  1  0  0  0
 24 25  1  0  0  0
 26 27  1  0  0  0
 30 31  2  0  0  0
 30 32  1  0  0  0
 32 33  2  0  0  0
 33 34  1  0  0  0
 34 35  1  0  0  0
 34 36  1  0  0  0
  1 39  1  0  0  0
  1 40  1  0  0  0
  1 41  1  0  0  0
  3 42  1  0  0  0
  3 43  1  0  0  0
  4 44  1  0  0  0
  4 45  1  0  0  0
  8 46  1  0  0  0
  8 47  1  0  0  0
 11 48  1  0  0  0
 17 49  1  0  0  0
 21 50  1  0  0  0
 23 51  1  0  0  0
 23 52  1  0  0  0
 23 53  1  0  0  0
 25 54  1  0  0  0
 25 55  1  0  0  0
 25 56  1  0  0  0
 27 57  1  0  0  0
 27 58  1  0  0  0
 27 59  1  0  0  0
 29 60  1  0  0  0
 32 61  1  0  0  0
 33 62  1  0  0  0
 35 63  1  0  0  0
 35 64  1  0  0  0
 35 65  1  0  0  0
 36 66  1  0  0  0
 36 67  1  0  0  0
 36 68  1  0  0  0
 37 69  1  0  0  0
 37 70  1  0  0  0
 37 71  1  0  0  0
 38 72  1  0  0  0
M  END
$$$$
