4o0x_ligand
  -I-interpret- 

 46 49  0  0  0  0  0  0  0  0999 V2000
  -18.7850   -4.1390   13.3680 C   0  0  0  0  0
  -19.0560   -2.6900   13.7020 C   0  0  0  0  0
  -18.3740   -1.7150   13.1770 N   0  0  0  0  0
  -18.8170   -0.5230   13.6420 C   0  0  0  0  0
  -18.4310    0.8000   13.3950 C   0  0  0  0  0
  -19.0730    1.8230   14.0190 C   0  0  0  0  0
  -20.1210    1.5720   14.9140 C   0  0  0  0  0
  -20.5130    0.2580   15.1750 C   0  0  0  0  0
  -19.8650   -0.8000   14.5410 C   0  0  0  0  0
  -20.0030   -2.1890   14.5700 N   0  0  0  0  0
  -20.9410   -2.8910   15.3420 C   0  0  0  0  0
  -21.4330   -2.3500   16.4560 N   0  0  0  0  0
  -22.3260   -2.9950   17.1910 C   0  0  0  0  0
  -22.7440   -4.1970   16.8300 N   0  0  0  0  0
  -22.2660   -4.7520   15.7140 C   0  0  0  0  0
  -21.3700   -4.0930   14.9820 N   0  0  0  0  0
  -22.6970   -6.0070   15.3130 N   0  0  0  0  0
  -20.7700    2.6850   15.5470 C   0  0  0  0  0
  -21.2950    3.5990   16.0680 C   0  0  0  0  0
  -21.9530    4.7570   16.7020 C   0  0  0  0  0
  -23.4610    4.5300   16.6490 C   0  0  0  0  0
  -24.1770    5.7470   17.2340 C   0  0  0  0  0
  -23.7330    5.9220   18.6830 C   0  0  0  0  0
  -22.2180    6.1370   18.7390 C   0  0  0  0  0
  -21.5030    4.9090   18.1670 C   0  0  0  0  0
  -21.6600    5.9580   15.9930 O   0  0  0  0  0
  -18.9251   -4.2964   12.2986 H   0  0  0  0  0
  -17.7598   -4.3881   13.6420 H   0  0  0  0  0
  -19.4753   -4.7738   13.9235 H   0  0  0  0  0
  -17.6158    1.0097   12.7025 H   0  0  0  0  0
  -18.7687    2.8507   13.8206 H   0  0  0  0  0
  -21.3254    0.0598   15.8742 H   0  0  0  0  0
  -22.7182   -2.5335   18.0972 H   0  0  0  0  0
  -23.3840   -6.5130   15.8719 H   0  0  0  0  0
  -22.3271   -6.4245   14.4590 H   0  0  0  0  0
  -23.7167    3.6431   17.2288 H   0  0  0  0  0
  -23.7719    4.3868   15.6141 H   0  0  0  0  0
  -25.2561    5.5990   17.1915 H   0  0  0  0  0
  -23.9258    6.6379   16.6584 H   0  0  0  0  0
  -23.9912    5.0273   19.2496 H   0  0  0  0  0
  -24.2361    6.7887   19.1119 H   0  0  0  0  0
  -21.9113    6.2849   19.7744 H   0  0  0  0  0
  -21.9550    7.0159   18.1504 H   0  0  0  0  0
  -20.4218    5.0347   18.2241 H   0  0  0  0  0
  -21.7570    4.0171   18.7398 H   0  0  0  0  0
  -22.0976    6.6967   16.4225 H   0  0  0  0  0
  1  2  1  0  0  0
  2  3  4  0  0  0
  2 10  4  0  0  0
  3  4  4  0  0  0
  4  5  4  0  0  0
  4  9  4  0  0  0
  5  6  4  0  0  0
  6  7  4  0  0  0
  7  8  4  0  0  0
  7 18  1  0  0  0
  8  9  4  0  0  0
  9 10  4  0  0  0
 10 11  1  0  0  0
 11 12  4  0  0  0
 11 16  4  0  0  0
 12 13  4  0  0  0
 13 14  4  0  0  0
 14 15  4  0  0  0
 15 16  4  0  0  0
 15 17  1  0  0  0
 18 19  3  0  0  0
 19 20  1  0  0  0
 20 21  1  0  0  0
 20 25  1  0  0  0
 20 26  1  0  0  0
 21 22  1  0  0  0
 22 23  1  0  0  0
 23 24  1  0  0  0
 24 25  1  0  0  0
  1 27  1  0  0  0
  1 28  1  0  0  0
  1 29  1  0  0  0
  5 30  1  0  0  0
  6 31  1  0  0  0
  8 32  1  0  0  0
 13 33  1  0  0  0
 17 34  1  0  0  0
 17 35  1  0  0  0
 21 36  1  0  0  0
 21 37  1  0  0  0
 22 38  1  0  0  0
 22 39  1  0  0  0
 23 40  1  0  0  0
 23 41  1  0  0  0
 24 42  1  0  0  0
 24 43  1  0  0  0
 25 44  1  0  0  0
 25 45  1  0  0  0
 26 46  1  0  0  0
M  END
$$$$
