### 
### Created by X-TOOL on Mon Sep 10 21:13:19 2018
### 

@<TRIPOS>MOLECULE
4o0x_ligand
   46    49     1     0     0
SMALL
GAST_HUCK


@<TRIPOS>ATOM
      1 C1        -18.7850   -4.1390   13.3680 C.3       1 2OQ         0.0229
      2 C2        -19.0560   -2.6900   13.7020 C.2       1 2OQ         0.1463
      3 N3        -18.3740   -1.7150   13.1770 N.2       1 2OQ        -0.3091
      4 C4        -18.8170   -0.5230   13.6420 C.ar      1 2OQ         0.0293
      5 C5        -18.4310    0.8000   13.3950 C.ar      1 2OQ        -0.0616
      6 C6        -19.0730    1.8230   14.0190 C.ar      1 2OQ        -0.0611
      7 C7        -20.1210    1.5720   14.9140 C.ar      1 2OQ         0.0123
      8 C8        -20.5130    0.2580   15.1750 C.ar      1 2OQ        -0.0210
      9 C9        -19.8650   -0.8000   14.5410 C.ar      1 2OQ         0.1085
     10 N10       -20.0030   -2.1890   14.5700 N.pl3     1 2OQ        -0.1494
     11 C11       -20.9410   -2.8910   15.3420 C.ar      1 2OQ         0.2475
     12 N12       -21.4330   -2.3500   16.4560 N.ar      1 2OQ        -0.2279
     13 C13       -22.3260   -2.9950   17.1910 C.ar      1 2OQ         0.0781
     14 N14       -22.7440   -4.1970   16.8300 N.ar      1 2OQ        -0.2369
     15 C15       -22.2660   -4.7520   15.7140 C.ar      1 2OQ         0.1924
     16 N16       -21.3700   -4.0930   14.9820 N.ar      1 2OQ        -0.2005
     17 N17       -22.6970   -6.0070   15.3130 N.pl3     1 2OQ        -0.2988
     18 C18       -20.7700    2.6850   15.5470 C.1       1 2OQ        -0.0718
     19 C19       -21.2950    3.5990   16.0680 C.1       1 2OQ        -0.0665
     20 C20       -21.9530    4.7570   16.7020 C.3       1 2OQ         0.1254
     21 C21       -23.4610    4.5300   16.6490 C.3       1 2OQ        -0.0129
     22 C22       -24.1770    5.7470   17.2340 C.3       1 2OQ        -0.0496
     23 C23       -23.7330    5.9220   18.6830 C.3       1 2OQ        -0.0528
     24 C24       -22.2180    6.1370   18.7390 C.3       1 2OQ        -0.0496
     25 C25       -21.5030    4.9090   18.1670 C.3       1 2OQ        -0.0129
     26 O26       -21.6600    5.9580   15.9930 O.3       1 2OQ        -0.3768
     27 H         -17.9632   -4.1998   12.6393 H         1 2OQ         0.0503
     28 H         -19.6906   -4.5918   12.9380 H         1 2OQ         0.0503
     29 H         -18.5039   -4.6800   14.2836 H         1 2OQ         0.0503
     30 H         -17.6203    1.0085   12.7063 H         1 2OQ         0.0545
     31 H         -18.7704    2.8450   13.8217 H         1 2OQ         0.0540
     32 H         -21.3209    0.0609   15.8704 H         1 2OQ         0.0570
     33 H         -22.7161   -2.5360   18.0923 H         1 2OQ         0.1156
     34 H         -23.3900   -6.5183   15.8779 H         1 2OQ         0.1864
     35 H         -22.3242   -6.4282   14.4501 H         1 2OQ         0.1864
     36 H         -23.7186    3.6355   17.2352 H         1 2OQ         0.0302
     37 H         -23.7743    4.3866   15.6044 H         1 2OQ         0.0302
     38 H         -25.2652    5.5906   17.1961 H         1 2OQ         0.0266
     39 H         -23.9152    6.6449   16.6551 H         1 2OQ         0.0266
     40 H         -23.9953    5.0209   19.2567 H         1 2OQ         0.0265
     41 H         -24.2419    6.7948   19.1180 H         1 2OQ         0.0265
     42 H         -21.9080    6.2875   19.7836 H         1 2OQ         0.0266
     43 H         -21.9521    7.0245   18.1461 H         1 2OQ         0.0266
     44 H         -20.4134    5.0527   18.2130 H         1 2OQ         0.0302
     45 H         -21.7791    4.0118   18.7405 H         1 2OQ         0.0302
     46 H         -20.7237    6.1168   16.0148 H         1 2OQ         0.2114
@<TRIPOS>BOND
     1    1    2 1  
     2    2    3 2  
     3    2   10 1  
     4    3    4 1  
     5    4    5 ar 
     6    4    9 ar 
     7    5    6 ar 
     8    6    7 ar 
     9    7    8 ar 
    10    7   18 1  
    11    8    9 ar 
    12    9   10 1  
    13   10   11 1  
    14   11   12 ar 
    15   11   16 ar 
    16   12   13 ar 
    17   13   14 ar 
    18   14   15 ar 
    19   15   16 ar 
    20   15   17 1  
    21   18   19 3  
    22   19   20 1  
    23   20   21 1  
    24   20   25 1  
    25   20   26 1  
    26   21   22 1  
    27   22   23 1  
    28   23   24 1  
    29   24   25 1  
    30    1   27 1  
    31    1   28 1  
    32    1   29 1  
    33    5   30 1  
    34    6   31 1  
    35    8   32 1  
    36   13   33 1  
    37   17   34 1  
    38   17   35 1  
    39   21   36 1  
    40   21   37 1  
    41   22   38 1  
    42   22   39 1  
    43   23   40 1  
    44   23   41 1  
    45   24   42 1  
    46   24   43 1  
    47   25   44 1  
    48   25   45 1  
    49   26   46 1  
@<TRIPOS>SUBSTRUCTURE
     1 2OQ         1

