1nfw_ligand
  -I-interpret- 

 44 47  0  0  0  0  0  0  0  0999 V2000
    5.8400    2.2970   18.8420 N   0  0  0  0  0
    6.9690    1.6440   18.3920 C   0  0  0  0  0
    7.9620    1.7500   19.4420 C   0  0  0  0  0
    9.2320    1.1400   19.2150 C   0  0  0  0  0
    9.4680    0.4910   18.0400 N   0  0  0  0  0
    8.5580    0.3770   17.0370 C   0  0  0  0  0
    7.2600    0.9560   17.1760 C   0  0  0  0  0
    7.3950    2.4730   20.5110 C   0  0  0  0  0
    6.0840    2.7840   20.0830 C   0  0  0  0  0
    4.9980    3.5390   20.8340 C   0  0  0  0  0
    5.3160    4.8270   21.4730 N   0  0  0  0  0
    4.9700    5.0200   22.7950 C   0  0  0  0  0
    4.4150    4.1690   23.4860 O   0  0  0  0  0
    5.3100    6.4010   23.3890 C   0  0  0  0  0
    5.9100    7.4130   22.3900 N   0  0  0  0  0
    6.6760    6.9350   21.4420 C   0  0  0  0  0
    5.9840    5.8360   20.6150 C   0  0  0  0  0
    6.6310    8.7910   23.3900 S   0  0  0  0  0
    5.6960    8.9380   24.4770 O   0  0  0  0  0
    6.5960    9.6640   22.2590 O   0  0  0  0  0
    8.2550    8.6880   23.9880 C   0  0  0  0  0
    8.4570    7.9600   25.0920 C   0  0  0  0  0
    9.7590    7.6910   25.7070 C   0  0  0  0  0
    9.8480    6.9000   26.9160 C   0  0  0  0  0
   11.1980    6.7250   27.3460 C   0  0  0  0  0
   12.1220    7.3870   26.4530 C   0  0  0  0  0
   13.8300    7.3370   26.6850 Cl  0  0  0  0  0
   11.3150    8.1930   25.1540 S   0  0  0  0  0
   10.0092    1.1928   19.9774 H   0  0  0  0  0
    8.8196   -0.1578   16.1240 H   0  0  0  0  0
    6.5180    0.8753   16.3817 H   0  0  0  0  0
    7.8643    2.7348   21.4593 H   0  0  0  0  0
    4.7258    2.8815   21.6596 H   0  0  0  0  0
    4.2566    3.7842   20.0736 H   0  0  0  0  0
    6.0638    6.2349   24.1586 H   0  0  0  0  0
    4.3729    6.8291   23.7450 H   0  0  0  0  0
    7.5555    6.4955   21.9126 H   0  0  0  0  0
    6.9242    7.7546   20.7676 H   0  0  0  0  0
    5.2244    6.3078   19.9917 H   0  0  0  0  0
    6.7445    5.3276   20.0224 H   0  0  0  0  0
    9.0779    9.1957   23.4849 H   0  0  0  0  0
    7.5789    7.5309   25.5745 H   0  0  0  0  0
    8.9848    6.4862   27.4373 H   0  0  0  0  0
   11.4937    6.1647   28.2330 H   0  0  0  0  0
  1  2  4  0  0  0
  1  9  4  0  0  0
  2  3  4  0  0  0
  2  7  4  0  0  0
  3  4  4  0  0  0
  3  8  4  0  0  0
  4  5  4  0  0  0
  5  6  4  0  0  0
  6  7  4  0  0  0
  8  9  4  0  0  0
  9 10  1  0  0  0
 10 11  1  0  0  0
 11 12  1  0  0  0
 11 17  1  0  0  0
 12 13  2  0  0  0
 12 14  1  0  0  0
 14 15  1  0  0  0
 15 16  1  0  0  0
 15 18  1  0  0  0
 16 17  1  0  0  0
 18 19  2  0  0  0
 18 20  2  0  0  0
 18 21  1  0  0  0
 21 22  2  0  0  0
 22 23  1  0  0  0
 23 24  4  0  0  0
 23 28  4  0  0  0
 24 25  4  0  0  0
 25 26  4  0  0  0
 26 27  1  0  0  0
 26 28  4  0  0  0
  4 29  1  0  0  0
  6 30  1  0  0  0
  7 31  1  0  0  0
  8 32  1  0  0  0
 10 33  1  0  0  0
 10 34  1  0  0  0
 14 35  1  0  0  0
 14 36  1  0  0  0
 16 37  1  0  0  0
 16 38  1  0  0  0
 17 39  1  0  0  0
 17 40  1  0  0  0
 21 41  1  0  0  0
 22 42  1  0  0  0
 24 43  1  0  0  0
 25 44  1  0  0  0
M  END
$$$$
