### 
### Created by X-TOOL on Mon Sep 10 21:12:46 2018
### 

@<TRIPOS>MOLECULE
1bnw_ligand
   29    30     1     0     0
SMALL
GAST_HUCK


@<TRIPOS>ATOM
      1 C3         -5.2720    2.0930   15.8300 C.2       1 TPD         0.1618
      2 C9         -2.5880    6.3460   13.9900 C.3       1 TPD         0.0717
      3 C10        -2.0720    7.6960   13.8940 C.2       1 TPD         0.0306
      4 C11        -2.1060    8.4440   12.7330 C.2       1 TPD        -0.0801
      5 C12        -1.6140    9.7130   12.9390 C.2       1 TPD        -0.0931
      6 C13        -1.1930    9.9560   14.2360 C.2       1 TPD        -0.0195
      7 O1A        -5.4750    1.0740   18.1580 O.2       1 TPD        -0.1501
      8 O2A        -7.3150    0.9750   16.7440 O.2       1 TPD        -0.1501
      9 N21        -5.3990   -0.4720   16.2890 N.am      1 TPD        -0.2605
     10 S1         -5.8990    0.8280   16.8150 S.o2      1 TPD         0.0745
     11 C4         -4.0400    2.1040   15.2520 C.2       1 TPD        -0.0504
     12 C5         -3.8220    3.2650   14.5570 C.2       1 TPD        -0.0504
     13 C6         -4.8860    4.1360   14.6030 C.2       1 TPD         0.1622
     14 S2         -6.1780    3.5170   15.5160 S.3       1 TPD         0.0111
     15 S7         -5.0220    5.6980   13.8580 S.o2      1 TPD         0.0788
     16 O3B        -4.9270    5.4990   12.4420 O.2       1 TPD        -0.1497
     17 O4B        -6.3080    6.2440   14.1910 O.2       1 TPD        -0.1497
     18 N8         -3.9630    6.5960   14.4120 N.am      1 TPD        -0.2338
     19 S14        -1.4130    8.5610   15.2460 S.3       1 TPD        -0.0428
     20 H1         -2.5520    5.8309   13.0187 H         1 TPD         0.0665
     21 H2         -2.0377    5.7567   14.7382 H         1 TPD         0.0665
     22 H3         -2.4750    8.0765   11.7766 H         1 TPD         0.0277
     23 H4         -1.5604   10.4616   12.1499 H         1 TPD         0.0371
     24 H5         -0.7768   10.9021   14.5788 H         1 TPD         0.0598
     25 H6         -5.6609   -1.3267   16.7372 H         1 TPD         0.1635
     26 H7         -4.8012   -0.4904   15.4875 H         1 TPD         0.1635
     27 H8         -3.3182    1.2925   15.3317 H         1 TPD         0.0423
     28 H9         -2.8979    3.4771   14.0213 H         1 TPD         0.0423
     29 H10        -4.1871    7.3369   15.0451 H         1 TPD         0.1703
@<TRIPOS>BOND
     1    1   14 1  
     2    1   11 2  
     3    1   10 1  
     4   10    7 2  
     5   10    8 2  
     6   10    9 am 
     7   11   12 1  
     8   12   13 2  
     9   13   15 1  
    10   13   14 1  
    11   15   18 am 
    12   15   17 2  
    13   15   16 2  
    14   18    2 1  
    15    2    3 1  
    16    3   19 1  
    17    3    4 2  
    18    4    5 1  
    19    5    6 2  
    20    6   19 1  
    21    2   20 1  
    22    2   21 1  
    23    4   22 1  
    24    5   23 1  
    25    6   24 1  
    26    9   25 1  
    27    9   26 1  
    28   11   27 1  
    29   12   28 1  
    30   18   29 1  
@<TRIPOS>SUBSTRUCTURE
     1 TPD         1

