1bnw_ligand
  -I-interpret- 

 29 30  0  0  0  0  0  0  0  0999 V2000
   -5.2720    2.0930   15.8300 C   0  0  0  0  0
   -2.5880    6.3460   13.9900 C   0  0  0  0  0
   -2.0720    7.6960   13.8940 C   0  0  0  0  0
   -2.1060    8.4440   12.7330 C   0  0  0  0  0
   -1.6140    9.7130   12.9390 C   0  0  0  0  0
   -1.1930    9.9560   14.2360 C   0  0  0  0  0
   -5.4750    1.0740   18.1580 O   0  0  0  0  0
   -7.3150    0.9750   16.7440 O   0  0  0  0  0
   -5.3990   -0.4720   16.2890 N   0  0  0  0  0
   -5.8990    0.8280   16.8150 S   0  0  0  0  0
   -4.0400    2.1040   15.2520 C   0  0  0  0  0
   -3.8220    3.2650   14.5570 C   0  0  0  0  0
   -4.8860    4.1360   14.6030 C   0  0  0  0  0
   -6.1780    3.5170   15.5160 S   0  0  0  0  0
   -5.0220    5.6980   13.8580 S   0  0  0  0  0
   -4.9270    5.4990   12.4420 O   0  0  0  0  0
   -6.3080    6.2440   14.1910 O   0  0  0  0  0
   -3.9630    6.5960   14.4120 N   0  0  0  0  0
   -1.4130    8.5610   15.2460 S   0  0  0  0  0
   -2.5100    5.7795   13.0620 H   0  0  0  0  0
   -2.0276    5.7099   14.6751 H   0  0  0  0  0
   -2.4754    8.0762   11.7757 H   0  0  0  0  0
   -1.5603   10.4623   12.1492 H   0  0  0  0  0
   -0.7764   10.9030   14.5791 H   0  0  0  0  0
   -4.8214   -1.0721   16.8777 H   0  0  0  0  0
   -5.6341   -0.7625   15.3399 H   0  0  0  0  0
   -3.3175    1.2917   15.3317 H   0  0  0  0  0
   -2.8971    3.4773   14.0208 H   0  0  0  0  0
   -4.1916    7.3517   15.0578 H   0  0  0  0  0
  1 14  4  0  0  0
  1 11  4  0  0  0
  1 10  1  0  0  0
 10  7  2  0  0  0
 10  8  2  0  0  0
 10  9  1  0  0  0
 11 12  4  0  0  0
 12 13  4  0  0  0
 13 15  1  0  0  0
 13 14  4  0  0  0
 15 18  1  0  0  0
 15 17  2  0  0  0
 15 16  2  0  0  0
 18  2  1  0  0  0
  2  3  1  0  0  0
  3 19  4  0  0  0
  3  4  4  0  0  0
  4  5  4  0  0  0
  5  6  4  0  0  0
  6 19  4  0  0  0
  2 20  1  0  0  0
  2 21  1  0  0  0
  4 22  1  0  0  0
  5 23  1  0  0  0
  6 24  1  0  0  0
  9 25  1  0  0  0
  9 26  1  0  0  0
 11 27  1  0  0  0
 12 28  1  0  0  0
 18 29  1  0  0  0
M  END
$$$$
