### 
### Created by X-TOOL on Mon Sep 10 21:12:47 2018
### 

@<TRIPOS>MOLECULE
1f0u_ligand
   66    68     1     0     0
SMALL
GAST_HUCK


@<TRIPOS>ATOM
      1 C1         12.5050  -14.8710   23.4830 C.ar      1 RPR        -0.0469
      2 C2         12.9090  -13.6110   23.8810 C.ar      1 RPR        -0.0220
      3 C3         14.0530  -13.5150   24.6540 C.ar      1 RPR        -0.0599
      4 C4         14.7690  -14.6360   25.0460 C.ar      1 RPR        -0.0669
      5 C5         14.3500  -15.8940   24.6550 C.ar      1 RPR        -0.0546
      6 C6         13.2170  -16.0130   23.8570 C.ar      1 RPR         0.0023
      7 C7         10.0850  -11.2180   22.9830 C.ar      1 RPR        -0.0418
      8 C8         10.7820  -10.0770   22.5860 C.ar      1 RPR         0.0493
      9 C9         12.1730  -10.1120   22.6430 C.ar      1 RPR        -0.0418
     10 C10        12.8400  -11.2490   23.0750 C.ar      1 RPR        -0.0490
     11 C11        12.1550  -12.3870   23.4590 C.ar      1 RPR        -0.0157
     12 C12        10.7710  -12.3550   23.4140 C.ar      1 RPR        -0.0490
     13 C13        10.0600   -8.8680   22.1450 C.2       1 RPR         0.2048
     14 N14        10.7800   -8.0000   21.3880 N.am      1 RPR        -0.2807
     15 C15        10.2840   -6.6780   21.0060 C.3       1 RPR         0.0612
     16 C16        10.7870   -6.3510   19.5940 C.3       1 RPR        -0.0394
     17 C17        10.7310   -5.6350   22.0590 C.3       1 RPR         0.0920
     18 C18        10.0810   -4.2890   21.6970 C.2       1 RPR         0.2408
     19 O19         8.6550   -4.3630   21.6680 O.3       1 RPR        -0.2798
     20 C20        12.2730   -5.5160   22.1310 C.3       1 RPR         0.0041
     21 C21        12.7840  -17.3630   23.3610 C.3       1 RPR        -0.0015
     22 N22        13.2850  -17.6150   22.0060 N.4       1 RPR         0.2308
     23 C23        12.2570   -4.5180   24.4810 C.ar      1 RPR        -0.0549
     24 C24        12.8600   -3.7520   25.4860 C.ar      1 RPR         0.0192
     25 C25        14.0610   -3.0960   25.2170 C.ar      1 RPR        -0.0635
     26 C26        14.6290   -3.1830   23.9560 C.ar      1 RPR        -0.0686
     27 C27        14.0180   -3.9360   22.9640 C.ar      1 RPR        -0.0602
     28 C28        12.8390   -4.6300   23.2170 C.ar      1 RPR        -0.0404
     29 C29        12.2420   -3.6320   26.8170 C.cat     1 RPR         0.2340
     30 N30        12.9490   -3.2590   27.8790 N.pl3     1 RPR        -0.2722
     31 N31        10.9350   -3.9120   26.9630 N.pl3     1 RPR        -0.2722
     32 O32        10.6790   -3.2860   21.4430 O.2       1 RPR        -0.3699
     33 O33         8.8920   -8.6520   22.4350 O.2       1 RPR        -0.3850
     34 C34         7.9040   -3.2530   21.1650 C.3       1 RPR         0.0658
     35 H1         11.6181  -14.9753   22.8685 H         1 RPR         0.0567
     36 H2         14.3994  -12.5351   24.9619 H         1 RPR         0.0572
     37 H3         15.6565  -14.5259   25.6585 H         1 RPR         0.0602
     38 H4         14.8974  -16.7763   24.9663 H         1 RPR         0.0565
     39 H5          9.0013  -11.2220   22.9567 H         1 RPR         0.0668
     40 H6         12.7423   -9.2388   22.3457 H         1 RPR         0.0668
     41 H7         13.9234  -11.2452   23.1124 H         1 RPR         0.0633
     42 H8         10.2093  -13.2303   23.7195 H         1 RPR         0.0633
     43 H9         11.6895   -8.2770   21.0781 H         1 RPR         0.1849
     44 H10         9.1844   -6.6986   20.9866 H         1 RPR         0.0583
     45 H11        10.4202   -5.3580   19.2949 H         1 RPR         0.0253
     46 H12        10.4144   -7.1075   18.8877 H         1 RPR         0.0253
     47 H13        11.8870   -6.3529   19.5870 H         1 RPR         0.0253
     48 H14        10.3664   -5.9513   23.0474 H         1 RPR         0.0599
     49 H15        12.6217   -5.1220   21.1650 H         1 RPR         0.0455
     50 H16        12.6780   -6.5275   22.2823 H         1 RPR         0.0455
     51 H17        11.6849  -17.4062   23.3511 H         1 RPR         0.0979
     52 H18        13.1753  -18.1366   24.0380 H         1 RPR         0.0979
     53 H19        12.9803  -18.5255   21.6990 H         1 RPR         0.2008
     54 H20        14.2924  -17.5811   22.0085 H         1 RPR         0.2008
     55 H21        12.9267  -16.9118   21.3790 H         1 RPR         0.2008
     56 H22        11.3249   -5.0314   24.6873 H         1 RPR         0.0556
     57 H23        14.5496   -2.5187   25.9935 H         1 RPR         0.0559
     58 H24        15.5547   -2.6604   23.7438 H         1 RPR         0.0599
     59 H25        14.4654   -3.9844   21.9778 H         1 RPR         0.0557
     60 H26        12.4937   -3.1824   28.7997 H         1 RPR         0.3181
     61 H27        13.9521   -3.0466   27.7812 H         1 RPR         0.3181
     62 H28        10.3763   -4.2021   26.1478 H         1 RPR         0.3181
     63 H29        10.4925   -3.8364   27.8900 H         1 RPR         0.3181
     64 H30         6.8297   -3.4834   21.2173 H         1 RPR         0.0577
     65 H31         8.1876   -3.0620   20.1195 H         1 RPR         0.0577
     66 H32         8.1176   -2.3607   21.7717 H         1 RPR         0.0577
@<TRIPOS>BOND
     1    1    6 ar 
     2    1    2 ar 
     3    2   11 1  
     4    2    3 ar 
     5    3    4 ar 
     6    4    5 ar 
     7    5    6 ar 
     8    6   21 1  
     9   21   22 1  
    10   11   12 ar 
    11   11   10 ar 
    12   10    9 ar 
    13    9    8 ar 
    14    8   13 1  
    15    8    7 ar 
    16    7   12 ar 
    17   13   33 2  
    18   13   14 am 
    19   14   15 1  
    20   15   17 1  
    21   15   16 1  
    22   17   20 1  
    23   17   18 1  
    24   18   32 2  
    25   18   19 1  
    26   19   34 1  
    27   20   28 1  
    28   28   27 ar 
    29   28   23 ar 
    30   23   24 ar 
    31   24   29 1  
    32   24   25 ar 
    33   25   26 ar 
    34   26   27 ar 
    35   29   31 ar 
    36   29   30 ar 
    37    1   35 1  
    38    3   36 1  
    39    4   37 1  
    40    5   38 1  
    41    7   39 1  
    42    9   40 1  
    43   10   41 1  
    44   12   42 1  
    45   14   43 1  
    46   15   44 1  
    47   16   45 1  
    48   16   46 1  
    49   16   47 1  
    50   17   48 1  
    51   20   49 1  
    52   20   50 1  
    53   21   51 1  
    54   21   52 1  
    55   22   53 1  
    56   22   54 1  
    57   22   55 1  
    58   23   56 1  
    59   25   57 1  
    60   26   58 1  
    61   27   59 1  
    62   30   60 1  
    63   30   61 1  
    64   31   62 1  
    65   31   63 1  
    66   34   64 1  
    67   34   65 1  
    68   34   66 1  
@<TRIPOS>SUBSTRUCTURE
     1 RPR         1

