1f0u_ligand
  -I-interpret- 

 65 67  0  0  0  0  0  0  0  0999 V2000
   12.5050  -14.8710   23.4830 C   0  0  0  0  0
   12.9090  -13.6110   23.8810 C   0  0  0  0  0
   14.0530  -13.5150   24.6540 C   0  0  0  0  0
   14.7690  -14.6360   25.0460 C   0  0  0  0  0
   14.3500  -15.8940   24.6550 C   0  0  0  0  0
   13.2170  -16.0130   23.8570 C   0  0  0  0  0
   10.0850  -11.2180   22.9830 C   0  0  0  0  0
   10.7820  -10.0770   22.5860 C   0  0  0  0  0
   12.1730  -10.1120   22.6430 C   0  0  0  0  0
   12.8400  -11.2490   23.0750 C   0  0  0  0  0
   12.1550  -12.3870   23.4590 C   0  0  0  0  0
   10.7710  -12.3550   23.4140 C   0  0  0  0  0
   10.0600   -8.8680   22.1450 C   0  0  0  0  0
   10.7800   -8.0000   21.3880 N   0  0  0  0  0
   10.2840   -6.6780   21.0060 C   0  0  0  0  0
   10.7870   -6.3510   19.5940 C   0  0  0  0  0
   10.7310   -5.6350   22.0590 C   0  0  0  0  0
   10.0810   -4.2890   21.6970 C   0  0  0  0  0
    8.6550   -4.3630   21.6680 O   0  0  0  0  0
   12.2730   -5.5160   22.1310 C   0  0  0  0  0
   12.7840  -17.3630   23.3610 C   0  0  0  0  0
   13.2850  -17.6150   22.0060 N   0  3  0  0  0
   12.2570   -4.5180   24.4810 C   0  0  0  0  0
   12.8600   -3.7520   25.4860 C   0  0  0  0  0
   14.0610   -3.0960   25.2170 C   0  0  0  0  0
   14.6290   -3.1830   23.9560 C   0  0  0  0  0
   14.0180   -3.9360   22.9640 C   0  0  0  0  0
   12.8390   -4.6300   23.2170 C   0  0  0  0  0
   12.2420   -3.6320   26.8170 C   0  0  0  0  0
   12.9490   -3.2590   27.8790 N   0  0  0  0  0
   10.9350   -3.9120   26.9630 N   0  0  0  0  0
   10.6790   -3.2860   21.4430 O   0  0  0  0  0
    8.8920   -8.6520   22.4350 O   0  0  0  0  0
    7.9040   -3.2530   21.1650 C   0  0  0  0  0
   11.6132  -14.9758   22.8651 H   0  0  0  0  0
   14.4013  -12.5297   24.9637 H   0  0  0  0  0
   15.6615  -14.5253   25.6619 H   0  0  0  0  0
   14.9004  -16.7812   24.9680 H   0  0  0  0  0
    8.9953  -11.2220   22.9565 H   0  0  0  0  0
   12.7455   -9.2339   22.3441 H   0  0  0  0  0
   13.9293  -11.2452   23.1126 H   0  0  0  0  0
   10.2061  -13.2351   23.7212 H   0  0  0  0  0
   11.7077   -8.2826   21.0719 H   0  0  0  0  0
    9.1944   -6.6587   20.9821 H   0  0  0  0  0
   11.8770   -6.3533   19.5884 H   0  0  0  0  0
   10.4172   -7.1013   18.8951 H   0  0  0  0  0
   10.4229   -5.3669   19.2988 H   0  0  0  0  0
   10.4065   -5.9524   23.0500 H   0  0  0  0  0
   12.5826   -5.0671   21.1872 H   0  0  0  0  0
   12.6408   -6.5201   22.3423 H   0  0  0  0  0
   11.6946  -17.3936   23.3407 H   0  0  0  0  0
   13.1868  -18.1248   24.0285 H   0  0  0  0  0
   12.9761  -18.5365   21.6965 H   0  0  0  0  0
   12.9218  -16.9028   21.3726 H   0  0  0  0  0
   14.3044  -17.5804   22.0098 H   0  0  0  0  0
   11.3197   -5.0343   24.6885 H   0  0  0  0  0
   14.5523   -2.5155   25.9978 H   0  0  0  0  0
   15.5598   -2.6575   23.7427 H   0  0  0  0  0
   14.4679   -3.9846   21.9724 H   0  0  0  0  0
   13.9424   -3.0486   27.7821 H   0  0  0  0  0
   10.4968   -3.8371   27.8810 H   0  0  0  0  0
   10.3817   -4.1993   26.1557 H   0  0  0  0  0
    8.1165   -2.3695   21.7670 H   0  0  0  0  0
    8.1859   -3.0648   20.1290 H   0  0  0  0  0
    6.8397   -3.4825   21.2173 H   0  0  0  0  0
  1  6  4  0  0  0
  1  2  4  0  0  0
  2 11  1  0  0  0
  2  3  4  0  0  0
  3  4  4  0  0  0
  4  5  4  0  0  0
  5  6  4  0  0  0
  6 21  1  0  0  0
 21 22  1  0  0  0
 11 12  4  0  0  0
 11 10  4  0  0  0
 10  9  4  0  0  0
  9  8  4  0  0  0
  8 13  1  0  0  0
  8  7  4  0  0  0
  7 12  4  0  0  0
 13 33  2  0  0  0
 13 14  1  0  0  0
 14 15  1  0  0  0
 15 17  1  0  0  0
 15 16  1  0  0  0
 17 20  1  0  0  0
 17 18  1  0  0  0
 18 32  2  0  0  0
 18 19  1  0  0  0
 19 34  1  0  0  0
 20 28  1  0  0  0
 28 27  4  0  0  0
 28 23  4  0  0  0
 23 24  4  0  0  0
 24 29  1  0  0  0
 24 25  4  0  0  0
 25 26  4  0  0  0
 26 27  4  0  0  0
 29 31  1  0  0  0
 29 30  2  0  0  0
  1 35  1  0  0  0
  3 36  1  0  0  0
  4 37  1  0  0  0
  5 38  1  0  0  0
  7 39  1  0  0  0
  9 40  1  0  0  0
 10 41  1  0  0  0
 12 42  1  0  0  0
 14 43  1  0  0  0
 15 44  1  0  0  0
 16 45  1  0  0  0
 16 46  1  0  0  0
 16 47  1  0  0  0
 17 48  1  0  0  0
 20 49  1  0  0  0
 20 50  1  0  0  0
 21 51  1  0  0  0
 21 52  1  0  0  0
 22 53  1  0  0  0
 22 54  1  0  0  0
 22 55  1  0  0  0
 23 56  1  0  0  0
 25 57  1  0  0  0
 26 58  1  0  0  0
 27 59  1  0  0  0
 30 60  1  0  0  0
 31 61  1  0  0  0
 31 62  1  0  0  0
 34 63  1  0  0  0
 34 64  1  0  0  0
 34 65  1  0  0  0
M  END
$$$$
