### 
### Created by X-TOOL on Mon Sep 10 21:13:28 2018
### 

@<TRIPOS>MOLECULE
5f1h_ligand
   50    52     1     0     0
SMALL
GAST_HUCK


@<TRIPOS>ATOM
      1 N3         11.3530   -7.8990    4.2740 N.ar      1 5U6        -0.3066
      2 C4         12.0580   -6.7810    4.3870 C.ar      1 5U6         0.0179
      3 C5          9.9950   -5.5110    4.6100 C.ar      1 5U6        -0.0071
      4 C6         11.4210   -5.5440    4.5680 C.ar      1 5U6         0.0762
      5 C7         12.1620   -4.2750    4.6980 C.2       1 5U6         0.2414
      6 C10         9.3230   -4.2010    4.7780 C.2       1 5U6         0.0037
      7 C13         5.8610   -3.4070    6.1200 C.ar      1 5U6        -0.0400
      8 C17         7.2500   -3.4700    6.0150 C.ar      1 5U6         0.0735
      9 C20         5.6090   -4.5370    4.0000 C.ar      1 5U6         0.0793
     10 C21         5.0470   -3.9060    5.1150 C.ar      1 5U6         0.0163
     11 C24         3.5140   -1.4620    4.4880 C.3       1 5U6        -0.0422
     12 C26         7.5660   -1.8190    7.7530 C.3       1 5U6         0.0563
     13 C18         7.8370   -4.0890    4.8860 C.ar      1 5U6        -0.0211
     14 C1          9.3100   -6.7320    4.4850 C.ar      1 5U6        -0.0377
     15 N8         11.4670   -3.1080    4.8070 N.am      1 5U6        -0.2056
     16 C2         10.0220   -7.8990    4.3260 C.ar      1 5U6         0.0009
     17 C16         1.5370   -2.8380    4.3070 C.3       1 5U6        -0.0422
     18 O25         8.0230   -2.9570    7.0190 O.3       1 5U6        -0.3320
     19 C9         10.0980   -3.0760    4.8520 C.2       1 5U6         0.0700
     20 C12        12.1820   -1.8350    4.9460 C.3       1 5U6         0.0583
     21 C19         7.0030   -4.6040    3.8800 C.ar      1 5U6        -0.0501
     22 C14         3.5480   -3.7760    5.2700 C.3       1 5U6        -0.0050
     23 O22         4.7890   -5.0140    3.0070 O.3       1 5U6        -0.3335
     24 N15         3.0090   -2.8270    4.2810 N.4       1 5U6         0.2406
     25 O11        13.3850   -4.2820    4.6880 O.2       1 5U6        -0.3859
     26 C23         5.1100   -6.2440    2.3460 C.3       1 5U6         0.0552
     27 H1         13.1401   -6.8236    4.3389 H         1 5U6         0.0844
     28 H2          5.4113   -2.9615    7.0000 H         1 5U6         0.0438
     29 H3          3.0845   -0.7930    3.7278 H         1 5U6         0.0778
     30 H4          4.6105   -1.4596    4.4011 H         1 5U6         0.0778
     31 H5          3.2248   -1.1120    5.4899 H         1 5U6         0.0778
     32 H6          8.3128   -1.5498    8.5144 H         1 5U6         0.0573
     33 H7          6.6115   -2.0587    8.2443 H         1 5U6         0.0573
     34 H8          7.4221   -0.9727    7.0653 H         1 5U6         0.0573
     35 H9          8.2266   -6.7544    4.5137 H         1 5U6         0.0641
     36 H10         9.4880   -8.8386    4.2412 H         1 5U6         0.0804
     37 H11         1.1752   -3.8650    4.1509 H         1 5U6         0.0778
     38 H12         1.1513   -2.1880    3.5078 H         1 5U6         0.0778
     39 H13         1.1847   -2.4693    5.2817 H         1 5U6         0.0778
     40 H14         9.6040   -2.1106    4.9512 H         1 5U6         0.1215
     41 H15        13.2657   -2.0153    4.8909 H         1 5U6         0.0602
     42 H16        11.9350   -1.3797    5.9164 H         1 5U6         0.0602
     43 H17        11.8817   -1.1553    4.1350 H         1 5U6         0.0602
     44 H18         7.4434   -5.0588    3.0001 H         1 5U6         0.0424
     45 H19         3.3186   -3.4130    6.2827 H         1 5U6         0.0944
     46 H20         3.0814   -4.7606    5.1189 H         1 5U6         0.0944
     47 H21         3.3089   -3.1310    3.3679 H         1 5U6         0.2039
     48 H22         4.3446   -6.4629    1.5869 H         1 5U6         0.0570
     49 H23         5.1389   -7.0598    3.0833 H         1 5U6         0.0570
     50 H24         6.0928   -6.1536    1.8603 H         1 5U6         0.0570
@<TRIPOS>BOND
     1    2    1 ar 
     2   16    1 ar 
     3    4    2 ar 
     4    3    4 ar 
     5    6    3 1  
     6    3   14 ar 
     7    4    5 1  
     8   15    5 am 
     9    5   25 2  
    10   13    6 1  
    11    6   19 2  
    12    7    8 ar 
    13   10    7 ar 
    14    8   13 ar 
    15    8   18 1  
    16   10    9 ar 
    17    9   21 ar 
    18    9   23 1  
    19   22   10 1  
    20   24   11 1  
    21   18   12 1  
    22   21   13 ar 
    23   14   16 ar 
    24   19   15 1  
    25   15   20 1  
    26   24   17 1  
    27   22   24 1  
    28   23   26 1  
    29    2   27 1  
    30    7   28 1  
    31   11   29 1  
    32   11   30 1  
    33   11   31 1  
    34   12   32 1  
    35   12   33 1  
    36   12   34 1  
    37   14   35 1  
    38   16   36 1  
    39   17   37 1  
    40   17   38 1  
    41   17   39 1  
    42   19   40 1  
    43   20   41 1  
    44   20   42 1  
    45   20   43 1  
    46   21   44 1  
    47   22   45 1  
    48   22   46 1  
    49   24   47 1  
    50   26   48 1  
    51   26   49 1  
    52   26   50 1  
@<TRIPOS>SUBSTRUCTURE
     1 5U6         1

