5f1h_ligand
  -I-interpret- 

 50 52  0  0  0  0  0  0  0  0999 V2000
   11.3530   -7.8990    4.2740 N   0  0  0  0  0
   12.0580   -6.7810    4.3870 C   0  0  0  0  0
    9.9950   -5.5110    4.6100 C   0  0  0  0  0
   11.4210   -5.5440    4.5680 C   0  0  0  0  0
   12.1620   -4.2750    4.6980 C   0  0  0  0  0
    9.3230   -4.2010    4.7780 C   0  0  0  0  0
    5.8610   -3.4070    6.1200 C   0  0  0  0  0
    7.2500   -3.4700    6.0150 C   0  0  0  0  0
    5.6090   -4.5370    4.0000 C   0  0  0  0  0
    5.0470   -3.9060    5.1150 C   0  0  0  0  0
    3.5140   -1.4620    4.4880 C   0  0  0  0  0
    7.5660   -1.8190    7.7530 C   0  0  0  0  0
    7.8370   -4.0890    4.8860 C   0  0  0  0  0
    9.3100   -6.7320    4.4850 C   0  0  0  0  0
   11.4670   -3.1080    4.8070 N   0  0  0  0  0
   10.0220   -7.8990    4.3260 C   0  0  0  0  0
    1.5370   -2.8380    4.3070 C   0  0  0  0  0
    8.0230   -2.9570    7.0190 O   0  0  0  0  0
   10.0980   -3.0760    4.8520 C   0  0  0  0  0
   12.1820   -1.8350    4.9460 C   0  0  0  0  0
    7.0030   -4.6040    3.8800 C   0  0  0  0  0
    3.5480   -3.7760    5.2700 C   0  0  0  0  0
    4.7890   -5.0140    3.0070 O   0  0  0  0  0
    3.0090   -2.8270    4.2810 N   0  3  0  0  0
   13.3850   -4.2820    4.6880 O   0  0  0  0  0
    5.1100   -6.2440    2.3460 C   0  0  0  0  0
   13.1461   -6.8239    4.3386 H   0  0  0  0  0
    5.4089   -2.9590    7.0049 H   0  0  0  0  0
    3.1391   -0.8133    3.6963 H   0  0  0  0  0
    3.1723   -1.0923    5.4548 H   0  0  0  0  0
    4.6037   -1.4719    4.4659 H   0  0  0  0  0
    7.4238   -0.9812    7.0704 H   0  0  0  0  0
    6.6201   -2.0578    8.2393 H   0  0  0  0  0
    8.3068   -1.5532    8.5071 H   0  0  0  0  0
    8.2206   -6.7545    4.5138 H   0  0  0  0  0
    9.4851   -8.8438    4.2408 H   0  0  0  0  0
    1.1892   -2.4725    5.2732 H   0  0  0  0  0
    1.1561   -2.1935    3.5147 H   0  0  0  0  0
    1.1798   -3.8561    4.1522 H   0  0  0  0  0
    9.6036   -2.1097    4.9513 H   0  0  0  0  0
   11.8835   -1.1624    4.1419 H   0  0  0  0  0
   11.9364   -1.3849    5.9079 H   0  0  0  0  0
   13.2557   -2.0149    4.8912 H   0  0  0  0  0
    7.4459   -5.0613    2.9952 H   0  0  0  0  0
    3.3256   -3.4087    6.2719 H   0  0  0  0  0
    3.0891   -4.7520    5.1118 H   0  0  0  0  0
    3.3303   -3.1332    3.3626 H   0  0  0  0  0
    6.0840   -6.1532    1.8652 H   0  0  0  0  0
    5.1384   -7.0515    3.0776 H   0  0  0  0  0
    4.3509   -6.4598    1.5941 H   0  0  0  0  0
  2  1  4  0  0  0
 16  1  4  0  0  0
  4  2  4  0  0  0
  3  4  4  0  0  0
  6  3  1  0  0  0
  3 14  4  0  0  0
  4  5  1  0  0  0
 15  5  1  0  0  0
  5 25  2  0  0  0
 13  6  1  0  0  0
  6 19  2  0  0  0
  7  8  4  0  0  0
 10  7  4  0  0  0
  8 13  4  0  0  0
  8 18  1  0  0  0
 10  9  4  0  0  0
  9 21  4  0  0  0
  9 23  1  0  0  0
 22 10  1  0  0  0
 24 11  1  0  0  0
 18 12  1  0  0  0
 21 13  4  0  0  0
 14 16  4  0  0  0
 19 15  1  0  0  0
 15 20  1  0  0  0
 24 17  1  0  0  0
 22 24  1  0  0  0
 23 26  1  0  0  0
  2 27  1  0  0  0
  7 28  1  0  0  0
 11 29  1  0  0  0
 11 30  1  0  0  0
 11 31  1  0  0  0
 12 32  1  0  0  0
 12 33  1  0  0  0
 12 34  1  0  0  0
 14 35  1  0  0  0
 16 36  1  0  0  0
 17 37  1  0  0  0
 17 38  1  0  0  0
 17 39  1  0  0  0
 19 40  1  0  0  0
 20 41  1  0  0  0
 20 42  1  0  0  0
 20 43  1  0  0  0
 21 44  1  0  0  0
 22 45  1  0  0  0
 22 46  1  0  0  0
 24 47  1  0  0  0
 26 48  1  0  0  0
 26 49  1  0  0  0
 26 50  1  0  0  0
M  END
$$$$
