1m48_ligand
  -I-interpret- 

 63 65  0  0  0  0  0  0  0  0999 V2000
    2.5640   20.9650    0.1020 N   0  0  0  0  0
    2.6030   20.1150   -0.9240 C   0  0  0  0  0
    3.6640   19.3090   -1.0060 N   0  0  0  0  0
    1.4640   20.0100   -1.8160 N   0  0  0  0  0
    1.5440   18.8910   -2.7960 C   0  0  0  0  0
    0.7770   21.2590   -2.2630 C   0  0  0  0  0
    0.7920   21.5550   -3.7680 C   0  0  0  0  0
    0.7650   20.3340   -4.6850 C   0  0  0  0  0
    1.7800   19.2790   -4.2560 C   0  0  0  0  0
    1.7010   18.0400   -5.1720 C   0  0  0  0  0
    1.8640   18.4240   -6.6300 C   0  0  0  0  0
    2.9290   18.8790   -7.0090 O   0  0  0  0  0
    0.8130   18.2520   -7.4550 N   0  0  0  0  0
    0.9170   18.4640   -8.9030 C   0  0  0  0  0
    0.7970   19.9100   -9.3270 C   0  0  0  0  0
    1.4720   20.3790  -10.2350 O   0  0  0  0  0
   -0.1090   20.8010   -8.6190 O   0  0  0  0  0
   -0.4400   22.0880   -9.1400 C   0  0  0  0  0
   -0.0450   17.5560   -9.6420 C   0  0  0  0  0
   -0.0430   16.0920   -9.4220 C   0  0  0  0  0
   -1.0430   15.4670   -8.6800 C   0  0  0  0  0
   -1.0440   14.0910   -8.5070 C   0  0  0  0  0
    0.9720   15.3360   -9.9940 C   0  0  0  0  0
    0.9930   13.9710   -9.8210 C   0  0  0  0  0
   -0.0100   13.3710   -9.0720 C   0  0  0  0  0
    0.0450   11.9300   -8.9320 C   0  0  0  0  0
    0.1140   10.6380   -8.8620 C   0  0  0  0  0
    0.1600    9.1950   -8.8240 C   0  0  0  0  0
   -0.6990    8.5090   -9.6690 C   0  0  0  0  0
   -0.6930    7.1280   -9.6580 C   0  0  0  0  0
    1.0160    8.5670   -7.9560 C   0  0  0  0  0
    1.0230    7.1890   -7.9480 C   0  0  0  0  0
    0.1680    6.4790   -8.7830 C   0  0  0  0  0
    3.3245   20.9794    0.7816 H   0  0  0  0  0
    4.3996   19.3609   -0.3013 H   0  0  0  0  0
    3.7391   18.6412   -1.7734 H   0  0  0  0  0
    0.5736   18.3953   -2.7683 H   0  0  0  0  0
    2.4047   18.2913   -2.5000 H   0  0  0  0  0
    1.3139   22.0816   -1.7906 H   0  0  0  0  0
   -0.2718   21.1373   -1.9921 H   0  0  0  0  0
   -0.1159   22.1197   -3.9800 H   0  0  0  0  0
    1.7298   22.0721   -3.9710 H   0  0  0  0  0
   -0.2299   19.8914   -4.6361 H   0  0  0  0  0
    1.0154   20.6590   -5.6948 H   0  0  0  0  0
    2.7816   19.6991   -4.3480 H   0  0  0  0  0
    0.7245   17.5734   -5.0424 H   0  0  0  0  0
    2.5045   17.3553   -4.9008 H   0  0  0  0  0
   -0.0830   17.9655   -7.0607 H   0  0  0  0  0
    1.9329   18.1886   -9.1861 H   0  0  0  0  0
    0.4683   22.6819   -9.2418 H   0  0  0  0  0
   -0.9118   21.9732  -10.1159 H   0  0  0  0  0
   -1.1283   22.5883   -8.4588 H   0  0  0  0  0
    0.2434   17.6642  -10.6876 H   0  0  0  0  0
   -1.0268   17.8725   -9.2900 H   0  0  0  0  0
   -1.8341   16.0668   -8.2300 H   0  0  0  0  0
   -1.8344   13.5946   -7.9440 H   0  0  0  0  0
    1.7514   15.8236  -10.5796 H   0  0  0  0  0
    1.7858   13.3695  -10.2657 H   0  0  0  0  0
   -1.3705    9.0527  -10.3335 H   0  0  0  0  0
   -1.3480    6.5614  -10.3199 H   0  0  0  0  0
    1.6683    9.1380   -7.2953 H   0  0  0  0  0
    1.7018    6.6535   -7.2842 H   0  0  0  0  0
    0.1736    5.3895   -8.7502 H   0  0  0  0  0
  1  2  2  0  0  0
  2  4  1  0  0  0
  2  3  1  0  0  0
  4  6  1  0  0  0
  4  5  1  0  0  0
  5  9  1  0  0  0
  9 10  1  0  0  0
  9  8  1  0  0  0
  8  7  1  0  0  0
  7  6  1  0  0  0
 10 11  1  0  0  0
 11 13  1  0  0  0
 11 12  2  0  0  0
 13 14  1  0  0  0
 14 19  1  0  0  0
 14 15  1  0  0  0
 15 17  1  0  0  0
 15 16  2  0  0  0
 17 18  1  0  0  0
 19 20  1  0  0  0
 20 23  4  0  0  0
 20 21  4  0  0  0
 21 22  4  0  0  0
 22 25  4  0  0  0
 25 26  1  0  0  0
 25 24  4  0  0  0
 24 23  4  0  0  0
 26 27  3  0  0  0
 27 28  1  0  0  0
 28 31  4  0  0  0
 28 29  4  0  0  0
 29 30  4  0  0  0
 30 33  4  0  0  0
 33 32  4  0  0  0
 32 31  4  0  0  0
  1 34  1  0  0  0
  3 35  1  0  0  0
  3 36  1  0  0  0
  5 37  1  0  0  0
  5 38  1  0  0  0
  6 39  1  0  0  0
  6 40  1  0  0  0
  7 41  1  0  0  0
  7 42  1  0  0  0
  8 43  1  0  0  0
  8 44  1  0  0  0
  9 45  1  0  0  0
 10 46  1  0  0  0
 10 47  1  0  0  0
 13 48  1  0  0  0
 14 49  1  0  0  0
 18 50  1  0  0  0
 18 51  1  0  0  0
 18 52  1  0  0  0
 19 53  1  0  0  0
 19 54  1  0  0  0
 21 55  1  0  0  0
 22 56  1  0  0  0
 23 57  1  0  0  0
 24 58  1  0  0  0
 29 59  1  0  0  0
 30 60  1  0  0  0
 31 61  1  0  0  0
 32 62  1  0  0  0
 33 63  1  0  0  0
M  END
$$$$
