### 
### Created by X-TOOL on Mon Sep 10 21:12:47 2018
### 

@<TRIPOS>MOLECULE
1bt6_ligand
  182   182     1     0     0
SMALL
GAST_HUCK


@<TRIPOS>ATOM
      1 C          60.8150   26.5290   29.0780 C.2       1 ACE         0.1752
      2 O          59.8440   27.1110   29.5550 O.2       1 ACE        -0.3972
      3 CH3        62.1690   26.6070   29.7410 C.3       1 ACE         0.0258
      4 N          61.0100   25.7170   28.0480 N.am      1 SER        -0.2637
      5 CA         60.1410   25.5590   26.9580 C.3       1 SER         0.1538
      6 C          58.9520   24.7790   27.5500 C.2       1 SER         0.2063
      7 O          57.7600   25.0950   27.4030 O.2       1 SER        -0.3943
      8 CB         60.7130   24.9870   25.6720 C.3       1 SER         0.0843
      9 OG         60.4540   23.5840   25.7250 O.3       1 SER        -0.3903
     10 N          59.2980   23.8650   28.4730 N.am      1 THR        -0.2613
     11 CA         58.1770   23.1960   29.1930 C.3       1 THR         0.1565
     12 C          57.6140   24.0110   30.3310 C.2       1 THR         0.2065
     13 O          56.3650   24.0160   31.0000 O.2       1 THR        -0.3943
     14 CB         58.4090   21.7520   29.3850 C.3       1 THR         0.0924
     15 OG1        58.0600   21.1530   30.5760 O.3       1 THR        -0.3874
     16 CG2        59.6450   21.1910   28.7670 C.3       1 THR        -0.0346
     17 N          58.3870   24.8420   31.0740 N.am      1 VAL        -0.2634
     18 CA         57.7830   25.6520   32.1490 C.3       1 VAL         0.1333
     19 C          56.9580   26.7480   31.5270 C.2       1 VAL         0.2043
     20 O          55.9050   27.1220   32.0450 O.2       1 VAL        -0.3944
     21 CB         58.8560   26.2500   33.1460 C.3       1 VAL        -0.0063
     22 CG1        58.4170   27.4620   33.9090 C.3       1 VAL        -0.0584
     23 CG2        59.2140   25.1610   34.1550 C.3       1 VAL        -0.0584
     24 N          57.4450   27.2570   30.3970 N.am      1 HIS        -0.2619
     25 CA         56.7210   28.3130   29.6690 C.3       1 HIS         0.1421
     26 C          55.3290   27.8300   29.2980 C.2       1 HIS         0.2060
     27 O          54.3560   28.4990   29.6250 O.2       1 HIS        -0.3942
     28 CB         57.5290   28.7900   28.4770 C.3       1 HIS         0.0427
     29 CG         56.7460   29.7860   27.6760 C.2       1 HIS         0.0561
     30 ND1        56.8950   31.1340   27.7650 N.pl3     1 HIS        -0.2623
     31 CD2        55.7480   29.5930   26.7640 C.2       1 HIS        -0.0276
     32 CE1        56.0290   31.7650   27.0280 C.2       1 HIS         0.0875
     33 NE2        55.3450   30.8430   26.3840 N.2       1 HIS        -0.3437
     34 N          55.1570   26.6500   28.7390 N.am      1 GLU        -0.2635
     35 CA         53.8840   26.0850   28.3600 C.3       1 GLU         0.1325
     36 C          53.0560   25.7500   29.5720 C.2       1 GLU         0.2040
     37 O          51.8390   25.9930   29.5280 O.2       1 GLU        -0.3944
     38 CB         54.0170   24.8250   27.5140 C.3       1 GLU        -0.0008
     39 CG         55.0160   24.9790   26.3520 C.3       1 GLU         0.0044
     40 CD         54.3240   25.3630   25.0390 C.2       1 GLU         0.0350
     41 OE1        53.2510   24.7620   24.7850 O.co2     1 GLU        -0.5690
     42 OE2        54.8320   26.2430   24.3040 O.co2     1 GLU        -0.5690
     43 N          53.6740   25.2150   30.6380 N.am      1 ILE        -0.2635
     44 CA         52.7930   24.9690   31.8100 C.3       1 ILE         0.1335
     45 C          52.3610   26.3110   32.3580 C.2       1 ILE         0.2042
     46 O          51.1840   26.4530   32.6940 O.2       1 ILE        -0.3944
     47 CB         53.4480   24.0900   32.8800 C.3       1 ILE        -0.0037
     48 CG1        53.8500   22.7800   32.2630 C.3       1 ILE        -0.0491
     49 CG2        52.5840   23.9340   34.1160 C.3       1 ILE        -0.0582
     50 CD1        54.2940   21.6340   33.1020 C.3       1 ILE        -0.0648
     51 N          53.2280   27.3420   32.4500 N.am      1 LEU        -0.2637
     52 CA         52.6980   28.5940   33.0220 C.3       1 LEU         0.1312
     53 C          51.4500   29.0780   32.3180 C.2       1 LEU         0.2040
     54 O          50.5110   29.5700   32.9260 O.2       1 LEU        -0.3944
     55 CB         53.7430   29.6730   33.2480 C.3       1 LEU        -0.0101
     56 CG         54.8740   29.1780   34.2170 C.3       1 LEU        -0.0425
     57 CD1        56.0130   30.1640   34.2260 C.3       1 LEU        -0.0625
     58 CD2        54.3010   28.8940   35.5740 C.3       1 LEU        -0.0625
     59 N          51.4590   28.8890   30.9950 N.am      1 SER        -0.2616
     60 CA         50.3360   29.1660   30.1030 C.3       1 SER         0.1539
     61 C          49.1150   28.3350   30.4280 C.2       1 SER         0.2062
     62 O          48.0260   28.8800   30.3090 O.2       1 SER        -0.3943
     63 CB         50.7740   29.0420   28.6420 C.3       1 SER         0.0843
     64 OG         51.2360   30.3830   28.3030 O.3       1 SER        -0.3903
     65 N          49.2130   27.1200   30.9230 N.am      1 LYS        -0.2637
     66 CA         48.0930   26.3020   31.3630 C.3       1 LYS         0.1310
     67 C          47.6270   26.6870   32.7780 C.2       1 LYS         0.2039
     68 O          46.6770   26.1400   33.3510 O.2       1 LYS        -0.3944
     69 CB         48.4400   24.8090   31.4070 C.3       1 LYS        -0.0122
     70 CG         48.0090   24.0090   30.2010 C.3       1 LYS        -0.0440
     71 CD         48.4080   24.7240   28.9160 C.3       1 LYS        -0.0124
     72 CE         48.4380   23.7510   27.7430 C.3       1 LYS        -0.0354
     73 NZ         49.1220   24.3580   26.5560 N.4       1 LYS         0.2185
     74 N          48.3460   27.6010   33.4180 N.am      1 LEU        -0.2637
     75 CA         47.9710   28.0520   34.7640 C.3       1 LEU         0.1312
     76 C          47.3690   29.4480   34.5580 C.2       1 LEU         0.2040
     77 O          46.7640   29.9910   35.4520 O.2       1 LEU        -0.3944
     78 CB         49.1140   28.0900   35.7330 C.3       1 LEU        -0.0101
     79 CG         49.9170   26.8440   36.0540 C.3       1 LEU        -0.0425
     80 CD1        50.6750   27.0270   37.3640 C.3       1 LEU        -0.0625
     81 CD2        49.0640   25.5940   36.0720 C.3       1 LEU        -0.0625
     82 N          47.5570   29.9250   33.3280 N.am      1 SER        -0.2604
     83 CA         47.0760   31.1820   32.8070 C.3       1 SER         0.1651
     84 C          46.0270   31.0420   31.7030 C.2       1 SER         0.2594
     85 O          45.1860   30.0930   31.7800 O.2       1 SER        -0.3679
     86 CB         48.2760   32.0000   32.2800 C.3       1 SER         0.0857
     87 OG         48.5580   33.0450   33.1960 O.3       1 SER        -0.3902
     88 O1         45.9959   31.8958   30.6837 O.3       1 SER        -0.2909
     89 H1         62.8962   26.0211   29.1597 H         1 ACE         0.0467
     90 H2         62.1019   26.2003   30.7608 H         1 ACE         0.0467
     91 H3         62.4956   27.6564   29.7855 H         1 ACE         0.0467
     92 H4         61.8477   25.1708   28.0482 H         1 SER         0.1883
     93 H5         59.7792   26.5614   26.6855 H         1 SER         0.0823
     94 H6         61.7953   25.1754   25.6164 H         1 SER         0.0606
     95 H7         60.2173   25.4358   24.7986 H         1 SER         0.0606
     96 H8         60.8804   23.2130   26.4885 H         1 SER         0.2097
     97 H9         60.2544   23.6459   28.6660 H         1 THR         0.1884
     98 H10        57.3540   23.2111   28.4633 H         1 THR         0.0826
     99 H11        57.6337   21.3434   28.7203 H         1 THR         0.0639
    100 H12        57.2684   21.5567   30.9122 H         1 THR         0.2101
    101 H13        59.7043   20.1133   28.9791 H         1 THR         0.0257
    102 H14        60.5270   21.6964   29.1872 H         1 THR         0.0257
    103 H15        59.6153   21.3494   27.6789 H         1 THR         0.0257
    104 H16        59.3684   24.9057   30.8927 H         1 VAL         0.1883
    105 H17        57.1141   25.0009   32.7309 H         1 VAL         0.0802
    106 H18        59.7493   26.5199   32.5636 H         1 VAL         0.0343
    107 H19        59.2318   27.7950   34.5687 H         1 VAL         0.0234
    108 H20        57.5331   27.2137   34.5148 H         1 VAL         0.0234
    109 H21        58.1638   28.2674   33.2039 H         1 VAL         0.0234
    110 H22        59.5405   24.2576   33.6190 H         1 VAL         0.0234
    111 H23        58.3318   24.9248   34.7681 H         1 VAL         0.0234
    112 H24        60.0276   25.5161   34.8046 H         1 VAL         0.0234
    113 H25        58.3143   26.9176   30.0377 H         1 HIS         0.1885
    114 H26        56.6014   29.1708   30.3471 H         1 HIS         0.0824
    115 H27        57.7773   27.9283   27.8399 H         1 HIS         0.0491
    116 H28        58.4565   29.2616   28.8338 H         1 HIS         0.0491
    117 H29        57.6073   31.5993   28.3456 H         1 HIS         0.2386
    118 H30        55.3545   28.6405   26.4122 H         1 HIS         0.0324
    119 H31        55.8959   32.8435   26.9575 H         1 HIS         0.1149
    120 H32        55.9742   26.1012   28.5629 H         1 GLU         0.1883
    121 H33        53.3479   26.8411   27.7676 H         1 GLU         0.0801
    122 H34        53.0298   24.5782   27.0963 H         1 GLU         0.0330
    123 H35        54.3572   24.0032   28.1613 H         1 GLU         0.0330
    124 H36        55.5423   24.0238   26.2086 H         1 GLU         0.0433
    125 H37        55.7428   25.7628   26.6115 H         1 GLU         0.0433
    126 H38        54.6504   24.9991   30.6429 H         1 ILE         0.1883
    127 H39        51.8970   24.4377   31.4567 H         1 ILE         0.0803
    128 H40        54.3700   24.5956   33.2029 H         1 ILE         0.0345
    129 H41        54.6791   23.0015   31.5748 H         1 ILE         0.0267
    130 H42        52.9810   22.4268   31.6885 H         1 ILE         0.0267
    131 H43        52.3287   24.9277   34.5127 H         1 ILE         0.0235
    132 H44        53.1351   23.3650   34.8792 H         1 ILE         0.0235
    133 H45        51.6612   23.3962   33.8529 H         1 ILE         0.0235
    134 H46        54.5399   20.7793   32.4547 H         1 ILE         0.0230
    135 H47        53.4861   21.3504   33.7926 H         1 ILE         0.0230
    136 H48        55.1842   21.9251   33.6789 H         1 ILE         0.0230
    137 H49        54.1775   27.2612   32.1469 H         1 LEU         0.1883
    138 H50        52.3621   28.3201   34.0330 H         1 LEU         0.0800
    139 H51        53.2566   30.5565   33.6870 H         1 LEU         0.0315
    140 H52        54.1927   29.9442   32.2815 H         1 LEU         0.0315
    141 H53        55.2675   28.2288   33.8244 H         1 LEU         0.0298
    142 H54        56.8001   29.8087   34.9074 H         1 LEU         0.0232
    143 H55        55.6473   31.1436   34.5674 H         1 LEU         0.0232
    144 H56        56.4234   30.2595   33.2099 H         1 LEU         0.0232
    145 H57        53.4791   28.1689   35.4805 H         1 LEU         0.0232
    146 H58        53.9185   29.8272   36.0132 H         1 LEU         0.0232
    147 H59        55.0852   28.4776   36.2233 H         1 LEU         0.0232
    148 H60        52.2978   28.5310   30.5848 H         1 SER         0.1884
    149 H61        50.0498   30.2160   30.2631 H         1 SER         0.0823
    150 H62        49.9290   28.7454   28.0033 H         1 SER         0.0606
    151 H63        51.5876   28.3091   28.5375 H         1 SER         0.0606
    152 H64        51.5304   30.3964   27.3999 H         1 SER         0.2097
    153 H65        50.1294   26.7278   31.0032 H         1 LYS         0.1883
    154 H66        47.2635   26.4552   30.6570 H         1 LYS         0.0800
    155 H67        47.9559   24.3739   32.2937 H         1 LYS         0.0312
    156 H68        49.5319   24.7168   31.5030 H         1 LYS         0.0312
    157 H69        46.9163   23.8838   30.2212 H         1 LYS         0.0269
    158 H70        48.4919   23.0211   30.2304 H         1 LYS         0.0269
    159 H71        49.4073   25.1655   29.0441 H         1 LYS         0.0317
    160 H72        47.6794   25.5207   28.7053 H         1 LYS         0.0317
    161 H73        47.4059   23.4885   27.4675 H         1 LYS         0.0813
    162 H74        48.9797   22.8422   28.0439 H         1 LYS         0.0813
    163 H75        49.1280   23.6953   25.7965 H         1 LYS         0.1994
    164 H76        50.0701   24.5973   26.8006 H         1 LYS         0.1994
    165 H77        48.6280   25.1896   26.2724 H         1 LYS         0.1994
    166 H78        49.1554   27.9883   32.9767 H         1 LEU         0.1883
    167 H79        47.2055   27.3749   35.1708 H         1 LEU         0.0800
    168 H80        48.7011   28.4486   36.6874 H         1 LEU         0.0315
    169 H81        49.8290   28.8289   35.3421 H         1 LEU         0.0315
    170 H82        50.6615   26.7170   35.2543 H         1 LEU         0.0298
    171 H83        51.2522   26.1168   37.5839 H         1 LEU         0.0232
    172 H84        49.9597   27.2133   38.1786 H         1 LEU         0.0232
    173 H85        51.3601   27.8829   37.2747 H         1 LEU         0.0232
    174 H86        48.5347   25.4975   35.1126 H         1 LEU         0.0232
    175 H87        48.3314   25.6618   36.8897 H         1 LEU         0.0232
    176 H88        49.7059   24.7142   36.2267 H         1 LEU         0.0232
    177 H89        48.0860   29.3529   32.7012 H         1 SER         0.1885
    178 H90        46.6125   31.7335   33.6382 H         1 SER         0.0840
    179 H91        48.0283   32.4275   31.2972 H         1 SER         0.0607
    180 H92        49.1551   31.3459   32.1843 H         1 SER         0.0607
    181 H93        49.2955   33.5527   32.8782 H         1 SER         0.2097
    182 H94        45.1557   32.3391   30.6689 H         1 SER         0.2540
@<TRIPOS>BOND
     1    1    2 2  
     2    1    3 1  
     3    5    4 1  
     4    5    8 1  
     5    6    5 1  
     6    6    7 2  
     7    8    9 1  
     8    4    1 am 
     9   11   10 1  
    10   11   14 1  
    11   12   11 1  
    12   12   13 2  
    13   14   16 1  
    14   14   15 1  
    15   10    6 am 
    16   18   17 1  
    17   18   21 1  
    18   19   18 1  
    19   19   20 2  
    20   21   23 1  
    21   21   22 1  
    22   17   12 am 
    23   25   24 1  
    24   25   28 1  
    25   26   25 1  
    26   26   27 2  
    27   28   29 1  
    28   29   30 1  
    29   29   31 2  
    30   31   33 1  
    31   33   32 2  
    32   30   32 1  
    33   24   19 am 
    34   35   34 1  
    35   35   38 1  
    36   36   35 1  
    37   36   37 2  
    38   38   39 1  
    39   39   40 1  
    40   40   42 ar 
    41   40   41 ar 
    42   34   26 am 
    43   44   43 1  
    44   44   47 1  
    45   45   44 1  
    46   45   46 2  
    47   47   49 1  
    48   47   48 1  
    49   48   50 1  
    50   43   36 am 
    51   52   51 1  
    52   52   55 1  
    53   53   52 1  
    54   53   54 2  
    55   55   56 1  
    56   56   57 1  
    57   56   58 1  
    58   51   45 am 
    59   60   59 1  
    60   60   63 1  
    61   61   60 1  
    62   61   62 2  
    63   63   64 1  
    64   59   53 am 
    65   66   65 1  
    66   66   69 1  
    67   67   66 1  
    68   67   68 2  
    69   69   70 1  
    70   70   71 1  
    71   71   72 1  
    72   72   73 1  
    73   65   61 am 
    74   75   74 1  
    75   75   78 1  
    76   76   75 1  
    77   76   77 2  
    78   78   79 1  
    79   79   80 1  
    80   79   81 1  
    81   74   67 am 
    82   82   83 1  
    83   83   86 1  
    84   83   84 1  
    85   84   85 2  
    86   86   87 1  
    87   76   82 am 
    88   84   88 1  
    89    3   89 1  
    90    3   90 1  
    91    3   91 1  
    92    4   92 1  
    93    5   93 1  
    94    8   94 1  
    95    8   95 1  
    96    9   96 1  
    97   10   97 1  
    98   11   98 1  
    99   14   99 1  
   100   15  100 1  
   101   16  101 1  
   102   16  102 1  
   103   16  103 1  
   104   17  104 1  
   105   18  105 1  
   106   21  106 1  
   107   22  107 1  
   108   22  108 1  
   109   22  109 1  
   110   23  110 1  
   111   23  111 1  
   112   23  112 1  
   113   24  113 1  
   114   25  114 1  
   115   28  115 1  
   116   28  116 1  
   117   30  117 1  
   118   31  118 1  
   119   32  119 1  
   120   34  120 1  
   121   35  121 1  
   122   38  122 1  
   123   38  123 1  
   124   39  124 1  
   125   39  125 1  
   126   43  126 1  
   127   44  127 1  
   128   47  128 1  
   129   48  129 1  
   130   48  130 1  
   131   49  131 1  
   132   49  132 1  
   133   49  133 1  
   134   50  134 1  
   135   50  135 1  
   136   50  136 1  
   137   51  137 1  
   138   52  138 1  
   139   55  139 1  
   140   55  140 1  
   141   56  141 1  
   142   57  142 1  
   143   57  143 1  
   144   57  144 1  
   145   58  145 1  
   146   58  146 1  
   147   58  147 1  
   148   59  148 1  
   149   60  149 1  
   150   63  150 1  
   151   63  151 1  
   152   64  152 1  
   153   65  153 1  
   154   66  154 1  
   155   69  155 1  
   156   69  156 1  
   157   70  157 1  
   158   70  158 1  
   159   71  159 1  
   160   71  160 1  
   161   72  161 1  
   162   72  162 1  
   163   73  163 1  
   164   73  164 1  
   165   73  165 1  
   166   74  166 1  
   167   75  167 1  
   168   78  168 1  
   169   78  169 1  
   170   79  170 1  
   171   80  171 1  
   172   80  172 1  
   173   80  173 1  
   174   81  174 1  
   175   81  175 1  
   176   81  176 1  
   177   82  177 1  
   178   83  178 1  
   179   86  179 1  
   180   86  180 1  
   181   87  181 1  
   182   88  182 1  
@<TRIPOS>SUBSTRUCTURE
     1 ACE         1

