1sdv_ligand
  -I-interpret- 

 94 98  0  0  0  0  0  0  0  0999 V2000
   23.5910   20.5680    2.9010 N   0  3  0  0  0
   23.5320   20.3780    4.3900 C   0  0  0  0  0
   24.4930   19.3320    4.9700 C   0  0  0  0  0
   24.4050   19.3170    6.4600 C   0  0  0  0  0
   23.3770   18.9420    7.0090 O   0  0  0  0  0
   25.4990   19.7270    7.0960 N   0  0  0  0  0
   25.6710   19.7460    8.5380 C   0  0  0  0  0
   27.0690   20.2970    8.8310 C   0  0  0  0  0
   25.5490   18.4430    9.0430 C   0  0  0  0  0
   24.6680   20.6270    9.1400 C   0  0  0  0  0
   23.9590   18.0700    4.3150 N   0  3  0  0  0
   23.9500   18.1470    2.8330 C   0  0  0  0  0
   23.2510   19.3740    2.2800 C   0  0  0  0  0
   24.7690   16.8890    4.6800 C   0  0  0  0  0
   23.8660   15.6730    4.9390 C   0  0  0  0  0
   24.6310   14.5740    4.5980 O   0  0  0  0  0
   23.3970   15.5450    6.4000 C   0  0  0  0  0
   22.5180   14.3080    6.7430 C   0  0  0  0  0
   22.3560   14.2170    8.2740 C   0  0  0  0  0
   21.4340   13.1780    8.7560 C   0  0  0  0  0
   21.7070   11.8270    8.5270 C   0  0  0  0  0
   20.8290   10.8650    9.0160 C   0  0  0  0  0
   19.6990   11.2460    9.7230 C   0  0  0  0  0
   19.4370   12.5900    9.9640 C   0  0  0  0  0
   20.3120   13.5360    9.4770 C   0  0  0  0  0
   21.1560   14.4840    6.1000 C   0  0  0  0  0
   20.4720   15.5250    6.1120 O   0  0  0  0  0
   20.7220   13.3530    5.5760 N   0  0  0  0  0
   19.3100   13.2310    5.2450 C   0  0  0  0  0
   18.6950   11.8770    5.5690 C   0  0  0  0  0
   19.5970   10.8120    5.2650 O   0  0  0  0  0
   17.4730   11.7970    4.6840 C   0  0  0  0  0
   17.8380   12.4530    3.3660 C   0  0  0  0  0
   17.3650   12.3900    2.0830 C   0  0  0  0  0
   17.9900   13.1970    1.1420 C   0  0  0  0  0
   19.0450   14.0510    1.4600 C   0  0  0  0  0
   19.5280   14.1430    2.7420 C   0  0  0  0  0
   19.0030   13.3900    3.7380 C   0  0  0  0  0
   22.8200   21.6920    2.3900 C   0  0  0  0  0
   23.0380   23.0670    3.0360 C   0  0  0  0  0
   24.2070   23.8070    2.8140 C   0  0  0  0  0
   24.4410   25.1230    3.2750 N   0  0  0  0  0
   23.3450   25.5640    3.9970 C   0  0  0  0  0
   22.1730   24.8660    4.2610 C   0  0  0  0  0
   21.9880   23.5740    3.7910 C   0  0  0  0  0
   24.5524   20.8214    2.6733 H   0  0  0  0  0
   22.5246   20.0280    4.6154 H   0  0  0  0  0
   23.8139   21.3332    4.8330 H   0  0  0  0  0
   25.5533   19.4948    4.7768 H   0  0  0  0  0
   26.2789   20.0540    6.5257 H   0  0  0  0  0
   27.2329   20.3142    9.9085 H   0  0  0  0  0
   27.8160   19.6590    8.3587 H   0  0  0  0  0
   27.1500   21.3088    8.4337 H   0  0  0  0  0
   26.2927   17.8008    8.5713 H   0  0  0  0  0
   25.7096   18.4560   10.1210 H   0  0  0  0  0
   24.5502   18.0633    8.8278 H   0  0  0  0  0
   24.8251   20.6713   10.2177 H   0  0  0  0  0
   24.7632   21.6267    8.7163 H   0  0  0  0  0
   23.6718   20.2364    8.9325 H   0  0  0  0  0
   23.0026   17.9805    4.6579 H   0  0  0  0  0
   23.4069   17.2751    2.4684 H   0  0  0  0  0
   24.9889   18.1936    2.5065 H   0  0  0  0  0
   23.5500   19.4644    1.2357 H   0  0  0  0  0
   22.1826   19.2279    2.4392 H   0  0  0  0  0
   25.3298   17.1122    5.5876 H   0  0  0  0  0
   25.4461   16.6574    3.8579 H   0  0  0  0  0
   22.9505   15.7683    4.3552 H   0  0  0  0  0
   24.1197   13.7737    4.7383 H   0  0  0  0  0
   22.7757   16.4192    6.5946 H   0  0  0  0  0
   24.3021   15.4468    6.9994 H   0  0  0  0  0
   22.9865   13.3970    6.3707 H   0  0  0  0  0
   21.9423   15.1719    8.5983 H   0  0  0  0  0
   23.3387   13.9680    8.6745 H   0  0  0  0  0
   22.5970   11.5304    7.9720 H   0  0  0  0  0
   21.0303    9.8079    8.8426 H   0  0  0  0  0
   19.0106   10.4860   10.0928 H   0  0  0  0  0
   18.5543   12.8900   10.5287 H   0  0  0  0  0
   20.1142   14.5913    9.6651 H   0  0  0  0  0
   21.3642   12.5789    5.4062 H   0  0  0  0  0
   18.8911   14.0321    5.8540 H   0  0  0  0  0
   18.4574   11.7816    6.6285 H   0  0  0  0  0
   19.1831    9.9727    5.4790 H   0  0  0  0  0
   16.6270   12.3050    5.1470 H   0  0  0  0  0
   17.1751   10.7599    4.5297 H   0  0  0  0  0
   16.5358   11.7363    1.8126 H   0  0  0  0  0
   17.6408   13.1613    0.1101 H   0  0  0  0  0
   19.4957   14.6581    0.6749 H   0  0  0  0  0
   20.3446   14.8310    2.9611 H   0  0  0  0  0
   21.7776   21.4415    2.5871 H   0  0  0  0  0
   23.1302   21.8076    1.3515 H   0  0  0  0  0
   25.0004   23.3293    2.2392 H   0  0  0  0  0
   23.4088   26.5730    4.4044 H   0  0  0  0  0
   21.3862   25.3413    4.8469 H   0  0  0  0  0
   21.0855   22.9992    3.9988 H   0  0  0  0  0
  1  2  1  0  0  0
  1 13  1  0  0  0
  1 39  1  0  0  0
  2  3  1  0  0  0
  3  4  1  0  0  0
  3 11  1  0  0  0
  4  5  2  0  0  0
  4  6  1  0  0  0
  6  7  1  0  0  0
  7  8  1  0  0  0
  7  9  1  0  0  0
  7 10  1  0  0  0
 11 12  1  0  0  0
 11 14  1  0  0  0
 12 13  1  0  0  0
 14 15  1  0  0  0
 15 16  1  0  0  0
 15 17  1  0  0  0
 17 18  1  0  0  0
 18 19  1  0  0  0
 18 26  1  0  0  0
 19 20  1  0  0  0
 20 21  4  0  0  0
 20 25  4  0  0  0
 21 22  4  0  0  0
 22 23  4  0  0  0
 23 24  4  0  0  0
 24 25  4  0  0  0
 26 27  2  0  0  0
 26 28  1  0  0  0
 28 29  1  0  0  0
 29 30  1  0  0  0
 29 38  1  0  0  0
 30 31  1  0  0  0
 30 32  1  0  0  0
 32 33  1  0  0  0
 33 34  4  0  0  0
 33 38  4  0  0  0
 34 35  4  0  0  0
 35 36  4  0  0  0
 36 37  4  0  0  0
 37 38  4  0  0  0
 39 40  1  0  0  0
 40 41  4  0  0  0
 40 45  4  0  0  0
 41 42  4  0  0  0
 42 43  4  0  0  0
 43 44  4  0  0  0
 44 45  4  0  0  0
  1 46  1  0  0  0
  2 47  1  0  0  0
  2 48  1  0  0  0
  3 49  1  0  0  0
  6 50  1  0  0  0
  8 51  1  0  0  0
  8 52  1  0  0  0
  8 53  1  0  0  0
  9 54  1  0  0  0
  9 55  1  0  0  0
  9 56  1  0  0  0
 10 57  1  0  0  0
 10 58  1  0  0  0
 10 59  1  0  0  0
 11 60  1  0  0  0
 12 61  1  0  0  0
 12 62  1  0  0  0
 13 63  1  0  0  0
 13 64  1  0  0  0
 14 65  1  0  0  0
 14 66  1  0  0  0
 15 67  1  0  0  0
 16 68  1  0  0  0
 17 69  1  0  0  0
 17 70  1  0  0  0
 18 71  1  0  0  0
 19 72  1  0  0  0
 19 73  1  0  0  0
 21 74  1  0  0  0
 22 75  1  0  0  0
 23 76  1  0  0  0
 24 77  1  0  0  0
 25 78  1  0  0  0
 28 79  1  0  0  0
 29 80  1  0  0  0
 30 81  1  0  0  0
 31 82  1  0  0  0
 32 83  1  0  0  0
 32 84  1  0  0  0
 34 85  1  0  0  0
 35 86  1  0  0  0
 36 87  1  0  0  0
 37 88  1  0  0  0
 39 89  1  0  0  0
 39 90  1  0  0  0
 41 91  1  0  0  0
 43 92  1  0  0  0
 44 93  1  0  0  0
 45 94  1  0  0  0
M  END
$$$$
