### 
### Created by X-TOOL on Mon Sep 10 21:12:51 2018
### 

@<TRIPOS>MOLECULE
1sdv_ligand
   94    98     1     0     0
SMALL
GAST_HUCK


@<TRIPOS>ATOM
      1 N1         23.5910   20.5680    2.9010 N.4       1 MK1         0.2576
      2 C1         23.5320   20.3780    4.3900 C.3       1 MK1         0.0316
      3 C2         24.4930   19.3320    4.9700 C.3       1 MK1         0.1092
      4 C3         24.4050   19.3170    6.4600 C.2       1 MK1         0.2304
      5 O1         23.3770   18.9420    7.0090 O.2       1 MK1        -0.3906
      6 N2         25.4990   19.7270    7.0960 N.am      1 MK1        -0.2769
      7 C4         25.6710   19.7460    8.5380 C.3       1 MK1         0.0448
      8 C5         27.0690   20.2970    8.8310 C.3       1 MK1        -0.0396
      9 C6         25.5490   18.4430    9.0430 C.3       1 MK1        -0.0396
     10 C7         24.6680   20.6270    9.1400 C.3       1 MK1        -0.0396
     11 N3         23.9590   18.0700    4.3150 N.4       1 MK1         0.2635
     12 C8         23.9500   18.1470    2.8330 C.3       1 MK1         0.0117
     13 C9         23.2510   19.3740    2.2800 C.3       1 MK1         0.0112
     14 C10        24.7690   16.8890    4.6800 C.3       1 MK1        -0.0026
     15 C11        23.8660   15.6730    4.9390 C.3       1 MK1         0.0974
     16 O2         24.6310   14.5740    4.5980 O.3       1 MK1        -0.3864
     17 C12        23.3970   15.5450    6.4000 C.3       1 MK1        -0.0003
     18 C13        22.5180   14.3080    6.7430 C.3       1 MK1         0.0608
     19 C14        22.3560   14.2170    8.2740 C.3       1 MK1         0.0007
     20 C15        21.4340   13.1780    8.7560 C.ar      1 MK1        -0.0405
     21 C16        21.7070   11.8270    8.5270 C.ar      1 MK1        -0.0602
     22 C17        20.8290   10.8650    9.0160 C.ar      1 MK1        -0.0686
     23 C18        19.6990   11.2460    9.7230 C.ar      1 MK1        -0.0687
     24 C19        19.4370   12.5900    9.9640 C.ar      1 MK1        -0.0686
     25 C20        20.3120   13.5360    9.4770 C.ar      1 MK1        -0.0602
     26 C21        21.1560   14.4840    6.1000 C.2       1 MK1         0.1831
     27 O3         20.4720   15.5250    6.1120 O.2       1 MK1        -0.3964
     28 N4         20.7220   13.3530    5.5760 N.am      1 MK1        -0.2707
     29 C22        19.3100   13.2310    5.2450 C.3       1 MK1         0.1006
     30 C23        18.6950   11.8770    5.5690 C.3       1 MK1         0.0951
     31 O4         19.5970   10.8120    5.2650 O.3       1 MK1        -0.3857
     32 C24        17.4730   11.7970    4.6840 C.3       1 MK1         0.0085
     33 C25        17.8380   12.4530    3.3660 C.ar      1 MK1        -0.0361
     34 C26        17.3650   12.3900    2.0830 C.ar      1 MK1        -0.0667
     35 C27        17.9900   13.1970    1.1420 C.ar      1 MK1        -0.0755
     36 C28        19.0450   14.0510    1.4600 C.ar      1 MK1        -0.0754
     37 C29        19.5280   14.1430    2.7420 C.ar      1 MK1        -0.0646
     38 C30        19.0030   13.3900    3.7380 C.ar      1 MK1        -0.0133
     39 C31        22.8200   21.6920    2.3900 C.3       1 MK1         0.0087
     40 C32        23.0380   23.0670    3.0360 C.ar      1 MK1         0.0294
     41 C33        24.2070   23.8070    2.8140 C.ar      1 MK1         0.0176
     42 N5         24.4410   25.1230    3.2750 N.ar      1 MK1        -0.3042
     43 C34        23.3450   25.5640    3.9970 C.ar      1 MK1         0.0042
     44 C35        22.1730   24.8660    4.2610 C.ar      1 MK1        -0.0403
     45 C36        21.9880   23.5740    3.7910 C.ar      1 MK1        -0.0354
     46 H1         24.5532   20.7619    2.6715 H         1 MK1         0.2056
     47 H2         22.5071   20.0756    4.6510 H         1 MK1         0.0899
     48 H3         23.7607   21.3446    4.8626 H         1 MK1         0.0899
     49 H4         25.5341   19.5231    4.6709 H         1 MK1         0.1155
     50 H5         26.2636   20.0476    6.5369 H         1 MK1         0.1859
     51 H6         27.2317   20.3246    9.9186 H         1 MK1         0.0254
     52 H7         27.1555   21.3142    8.4215 H         1 MK1         0.0254
     53 H8         27.8243   19.6481    8.3636 H         1 MK1         0.0254
     54 H9         25.6795   18.4593   10.1351 H         1 MK1         0.0254
     55 H10        26.3195   17.8010    8.5912 H         1 MK1         0.0254
     56 H11        24.5523   18.0469    8.7988 H         1 MK1         0.0254
     57 H12        24.7997   20.6402   10.2320 H         1 MK1         0.0254
     58 H13        23.6612   20.2567    8.8966 H         1 MK1         0.0254
     59 H14        24.7897   21.6459    8.7437 H         1 MK1         0.0254
     60 H15        23.0138   17.9317    4.6369 H         1 MK1         0.2061
     61 H16        23.4391   17.2539    2.4440 H         1 MK1         0.0868
     62 H17        24.9922   18.1556    2.4814 H         1 MK1         0.0868
     63 H18        23.5034   19.4595    1.2128 H         1 MK1         0.0868
     64 H19        22.1663   19.2282    2.3897 H         1 MK1         0.0868
     65 H20        25.3442   17.1125    5.5906 H         1 MK1         0.0840
     66 H21        25.4608   16.6567    3.8570 H         1 MK1         0.0840
     67 H22        22.9785   15.7338    4.2920 H         1 MK1         0.0648
     68 H23        25.4109   14.5519    5.1400 H         1 MK1         0.2100
     69 H24        22.8150   16.4460    6.6440 H         1 MK1         0.0321
     70 H25        24.2935   15.5041    7.0361 H         1 MK1         0.0321
     71 H26        22.9945   13.3921    6.3635 H         1 MK1         0.0561
     72 H27        21.9876   15.1891    8.6335 H         1 MK1         0.0453
     73 H28        23.3470   14.0173    8.7076 H         1 MK1         0.0453
     74 H29        22.5921   11.5320    7.9751 H         1 MK1         0.0557
     75 H30        21.0292    9.8137    8.8436 H         1 MK1         0.0599
     76 H31        19.0144   10.4902   10.0908 H         1 MK1         0.0559
     77 H32        18.5591   12.8884   10.5256 H         1 MK1         0.0599
     78 H33        20.1153   14.5855    9.6640 H         1 MK1         0.0557
     79 H34        21.3516   12.5941    5.4095 H         1 MK1         0.1880
     80 H35        18.7794   14.0124    5.8087 H         1 MK1         0.0732
     81 H36        18.4121   11.8249    6.6307 H         1 MK1         0.0659
     82 H37        19.1874    9.9814    5.4768 H         1 MK1         0.2103
     83 H38        16.6321   12.3302    5.1515 H         1 MK1         0.0439
     84 H39        17.1942   10.7459    4.5186 H         1 MK1         0.0439
     85 H40        16.5403   11.7399    1.8141 H         1 MK1         0.0537
     86 H41        17.6427   13.1615    0.1157 H         1 MK1         0.0541
     87 H42        19.4932   14.6548    0.6792 H         1 MK1         0.0541
     88 H43        20.3401   14.8272    2.9599 H         1 MK1         0.0538
     89 H44        21.7559   21.4398    2.5084 H         1 MK1         0.0997
     90 H45        23.0564   21.7918    1.3204 H         1 MK1         0.0997
     91 H46        24.9961   23.3319    2.2424 H         1 MK1         0.0767
     92 H47        23.4085   26.5674    4.4022 H         1 MK1         0.0767
     93 H48        21.3906   25.3386    4.8436 H         1 MK1         0.0693
     94 H49        21.0905   23.0023    3.9976 H         1 MK1         0.0680
@<TRIPOS>BOND
     1    1    2 1  
     2    1   13 1  
     3    1   39 1  
     4    2    3 1  
     5    3    4 1  
     6    3   11 1  
     7    4    5 2  
     8    4    6 am 
     9    6    7 1  
    10    7    8 1  
    11    7    9 1  
    12    7   10 1  
    13   11   12 1  
    14   11   14 1  
    15   12   13 1  
    16   14   15 1  
    17   15   16 1  
    18   15   17 1  
    19   17   18 1  
    20   18   19 1  
    21   18   26 1  
    22   19   20 1  
    23   20   21 ar 
    24   20   25 ar 
    25   21   22 ar 
    26   22   23 ar 
    27   23   24 ar 
    28   24   25 ar 
    29   26   27 2  
    30   26   28 am 
    31   28   29 1  
    32   29   30 1  
    33   29   38 1  
    34   30   31 1  
    35   30   32 1  
    36   32   33 1  
    37   33   34 ar 
    38   33   38 ar 
    39   34   35 ar 
    40   35   36 ar 
    41   36   37 ar 
    42   37   38 ar 
    43   39   40 1  
    44   40   41 ar 
    45   40   45 ar 
    46   41   42 ar 
    47   42   43 ar 
    48   43   44 ar 
    49   44   45 ar 
    50    1   46 1  
    51    2   47 1  
    52    2   48 1  
    53    3   49 1  
    54    6   50 1  
    55    8   51 1  
    56    8   52 1  
    57    8   53 1  
    58    9   54 1  
    59    9   55 1  
    60    9   56 1  
    61   10   57 1  
    62   10   58 1  
    63   10   59 1  
    64   11   60 1  
    65   12   61 1  
    66   12   62 1  
    67   13   63 1  
    68   13   64 1  
    69   14   65 1  
    70   14   66 1  
    71   15   67 1  
    72   16   68 1  
    73   17   69 1  
    74   17   70 1  
    75   18   71 1  
    76   19   72 1  
    77   19   73 1  
    78   21   74 1  
    79   22   75 1  
    80   23   76 1  
    81   24   77 1  
    82   25   78 1  
    83   28   79 1  
    84   29   80 1  
    85   30   81 1  
    86   31   82 1  
    87   32   83 1  
    88   32   84 1  
    89   34   85 1  
    90   35   86 1  
    91   36   87 1  
    92   37   88 1  
    93   39   89 1  
    94   39   90 1  
    95   41   91 1  
    96   43   92 1  
    97   44   93 1  
    98   45   94 1  
@<TRIPOS>SUBSTRUCTURE
     1 MK1         1

