### 
### Created by X-TOOL on Wed Jan  1 15:39:35 2020
### 

@<TRIPOS>MOLECULE
5y12_ligand
   41    42     1     0     0
SMALL
GAST_HUCK


@<TRIPOS>ATOM
      1 OAB        -5.8710    4.5890  -15.0670 O.co2     1 8JX        -0.5690
      2 CAR        -6.1510    5.7730  -15.3650 C.2       1 8JX         0.0348
      3 OAE        -5.5760    6.7320  -14.7840 O.co2     1 8JX        -0.5690
      4 CAO        -7.1560    6.0560  -16.4170 C.3       1 8JX         0.0002
      5 CAM        -7.9790    7.3050  -16.2070 C.3       1 8JX        -0.0400
      6 CAL        -7.7730    8.4420  -17.1730 C.3       1 8JX        -0.0346
      7 CAN        -7.8130    8.1210  -18.6310 C.3       1 8JX         0.0265
      8 NAP        -7.6650    9.3380  -19.5630 N.am      1 8JX        -0.2490
      9 SAW        -6.1220    9.7950  -19.6960 S.o2      1 8JX         0.0620
     10 OAC        -5.6050   10.3650  -18.4290 O.2       1 8JX        -0.1522
     11 OAD        -6.0460   10.7770  -20.7870 O.2       1 8JX        -0.1522
     12 CAT        -5.1010    8.3120  -20.0770 C.ar      1 8JX         0.1012
     13 CAV        -5.1700    7.6540  -21.2970 C.ar      1 8JX         0.0004
     14 CAK        -6.0460    8.1060  -22.3470 C.ar      1 8JX        -0.0568
     15 CAG        -6.0870    7.4560  -23.5320 C.ar      1 8JX        -0.0640
     16 CAF        -5.2520    6.3060  -23.7450 C.ar      1 8JX        -0.0633
     17 CAJ        -4.4200    5.8670  -22.7320 C.ar      1 8JX        -0.0531
     18 CAU        -4.3730    6.5560  -21.5060 C.ar      1 8JX         0.0196
     19 CAS        -3.5060    6.1060  -20.4800 C.ar      1 8JX         0.1041
     20 OAQ        -2.7060    4.9890  -20.6970 O.3       1 8JX        -0.3162
     21 CAA        -2.0620    4.3980  -19.6430 C.3       1 8JX         0.0614
     22 CAH        -3.4550    6.7500  -19.2760 C.ar      1 8JX        -0.0322
     23 CAI        -4.2470    7.8590  -19.0680 C.ar      1 8JX        -0.0478
     24 H1         -7.8450    5.2000  -16.4673 H         1 8JX         0.0430
     25 H2         -6.6253    6.1564  -17.3753 H         1 8JX         0.0430
     26 H3         -7.7529    7.6834  -15.1992 H         1 8JX         0.0283
     27 H4         -9.0386    7.0147  -16.2605 H         1 8JX         0.0283
     28 H5         -6.7880    8.8823  -16.9591 H         1 8JX         0.0282
     29 H6         -8.5581    9.1873  -16.9776 H         1 8JX         0.0282
     30 H7         -8.7769    7.6379  -18.8490 H         1 8JX         0.0475
     31 H8         -6.9938    7.4203  -18.8500 H         1 8JX         0.0475
     32 H9         -8.4279    9.7882  -20.0271 H         1 8JX         0.1670
     33 H10        -6.6766    8.9729  -22.1863 H         1 8JX         0.0600
     34 H11        -6.7477    7.8013  -24.3189 H         1 8JX         0.0614
     35 H12        -5.2744    5.7852  -24.6955 H         1 8JX         0.0591
     36 H13        -3.8019    4.9893  -22.8826 H         1 8JX         0.0631
     37 H14        -1.4816    3.5364  -20.0045 H         1 8JX         0.0582
     38 H15        -2.8030    4.0572  -18.9049 H         1 8JX         0.0582
     39 H16        -1.3840    5.1256  -19.1729 H         1 8JX         0.0582
     40 H17        -2.7979    6.3922  -18.4916 H         1 8JX         0.0499
     41 H18        -4.2072    8.3812  -18.1189 H         1 8JX         0.0601
@<TRIPOS>BOND
     1    1    2 ar 
     2    2    3 ar 
     3    2    4 1  
     4    4    5 1  
     5    5    6 1  
     6    6    7 1  
     7    7    8 1  
     8    8    9 am 
     9    9   10 2  
    10    9   11 2  
    11    9   12 1  
    12   12   13 ar 
    13   12   23 ar 
    14   13   14 ar 
    15   13   18 ar 
    16   14   15 ar 
    17   15   16 ar 
    18   16   17 ar 
    19   17   18 ar 
    20   18   19 ar 
    21   19   20 1  
    22   19   22 ar 
    23   20   21 1  
    24   22   23 ar 
    25    4   24 1  
    26    4   25 1  
    27    5   26 1  
    28    5   27 1  
    29    6   28 1  
    30    6   29 1  
    31    7   30 1  
    32    7   31 1  
    33    8   32 1  
    34   14   33 1  
    35   15   34 1  
    36   16   35 1  
    37   17   36 1  
    38   21   37 1  
    39   21   38 1  
    40   21   39 1  
    41   22   40 1  
    42   23   41 1  
@<TRIPOS>SUBSTRUCTURE
     1 8JX         1

