5y12_ligand
  -I-interpret- 

 42 43  0  0  0  0  0  0  0  0999 V2000
   -5.8710    4.5890  -15.0670 O   0  0  0  0  0
   -6.1510    5.7730  -15.3650 C   0  0  0  0  0
   -5.5760    6.7320  -14.7840 O   0  0  0  0  0
   -7.1560    6.0560  -16.4170 C   0  0  0  0  0
   -7.9790    7.3050  -16.2070 C   0  0  0  0  0
   -7.7730    8.4420  -17.1730 C   0  0  0  0  0
   -7.8130    8.1210  -18.6310 C   0  0  0  0  0
   -7.6650    9.3380  -19.5630 N   0  0  0  0  0
   -6.1220    9.7950  -19.6960 S   0  0  0  0  0
   -5.6050   10.3650  -18.4290 O   0  0  0  0  0
   -6.0460   10.7770  -20.7870 O   0  0  0  0  0
   -5.1010    8.3120  -20.0770 C   0  0  0  0  0
   -5.1700    7.6540  -21.2970 C   0  0  0  0  0
   -6.0460    8.1060  -22.3470 C   0  0  0  0  0
   -6.0870    7.4560  -23.5320 C   0  0  0  0  0
   -5.2520    6.3060  -23.7450 C   0  0  0  0  0
   -4.4200    5.8670  -22.7320 C   0  0  0  0  0
   -4.3730    6.5560  -21.5060 C   0  0  0  0  0
   -3.5060    6.1060  -20.4800 C   0  0  0  0  0
   -2.7060    4.9890  -20.6970 O   0  0  0  0  0
   -2.0620    4.3980  -19.6430 C   0  0  0  0  0
   -3.4550    6.7500  -19.2760 C   0  0  0  0  0
   -4.2470    7.8590  -19.0680 C   0  0  0  0  0
   -5.9089    7.5620  -15.1330 H   0  0  0  0  0
   -7.8541    5.2189  -16.4139 H   0  0  0  0  0
   -6.6030    6.1999  -17.3452 H   0  0  0  0  0
   -7.6838    7.6910  -15.2313 H   0  0  0  0  0
   -9.0172    6.9974  -16.3320 H   0  0  0  0  0
   -6.7661    8.8125  -16.9809 H   0  0  0  0  0
   -8.6017    9.1287  -17.0001 H   0  0  0  0  0
   -8.7911    7.6844  -18.8327 H   0  0  0  0  0
   -6.9688    7.4620  -18.8337 H   0  0  0  0  0
   -8.4431    9.7972  -20.0363 H   0  0  0  0  0
   -6.6801    8.9777  -22.1854 H   0  0  0  0  0
   -6.7514    7.8033  -24.3233 H   0  0  0  0  0
   -5.2745    5.7824  -24.7007 H   0  0  0  0  0
   -3.7985    4.9844  -22.8834 H   0  0  0  0  0
   -1.3906    5.1199  -19.1781 H   0  0  0  0  0
   -2.7973    4.0608  -18.9124 H   0  0  0  0  0
   -1.4872    3.5444  -20.0024 H   0  0  0  0  0
   -2.7942    6.3902  -18.4873 H   0  0  0  0  0
   -4.2069    8.3841  -18.1136 H   0  0  0  0  0
  1  2  2  0  0  0
  2  3  1  0  0  0
  2  4  1  0  0  0
  4  5  1  0  0  0
  5  6  1  0  0  0
  6  7  1  0  0  0
  7  8  1  0  0  0
  8  9  1  0  0  0
  9 10  2  0  0  0
  9 11  2  0  0  0
  9 12  1  0  0  0
 12 13  4  0  0  0
 12 23  4  0  0  0
 13 14  4  0  0  0
 13 18  4  0  0  0
 14 15  4  0  0  0
 15 16  4  0  0  0
 16 17  4  0  0  0
 17 18  4  0  0  0
 18 19  4  0  0  0
 19 20  1  0  0  0
 19 22  4  0  0  0
 20 21  1  0  0  0
 22 23  4  0  0  0
  3 24  1  0  0  0
  4 25  1  0  0  0
  4 26  1  0  0  0
  5 27  1  0  0  0
  5 28  1  0  0  0
  6 29  1  0  0  0
  6 30  1  0  0  0
  7 31  1  0  0  0
  7 32  1  0  0  0
  8 33  1  0  0  0
 14 34  1  0  0  0
 15 35  1  0  0  0
 16 36  1  0  0  0
 17 37  1  0  0  0
 21 38  1  0  0  0
 21 39  1  0  0  0
 21 40  1  0  0  0
 22 41  1  0  0  0
 23 42  1  0  0  0
M  END
$$$$
