1d3d_ligand
  -I-interpret- 

 75 80  0  0  0  0  0  0  0  0999 V2000
  -24.0350  -30.4500   24.2640 C   0  0  0  0  0
  -24.3170  -31.5200   23.3160 C   0  0  0  0  0
  -23.4150  -31.8990   22.2780 C   0  0  0  0  0
  -22.1640  -31.2090   22.1440 C   0  0  0  0  0
  -21.8720  -30.1510   23.0670 C   0  0  0  0  0
  -22.7970  -29.7740   24.1230 C   0  0  0  0  0
  -23.5320  -33.1090   21.0650 S   0  0  0  0  0
  -22.0620  -32.7980   20.3770 C   0  0  0  0  0
  -21.3850  -31.7250   21.0720 C   0  0  0  0  0
  -19.9710  -31.4780   20.7020 C   0  0  0  0  0
  -21.5630  -33.5970   19.2000 C   0  0  0  0  0
  -20.9090  -33.0210   18.0190 C   0  0  0  0  0
  -20.4460  -33.8360   16.9690 C   0  0  0  0  0
  -20.5930  -35.2450   17.0130 C   0  0  0  0  0
  -21.2520  -35.8150   18.1900 C   0  0  0  0  0
  -21.7360  -35.0190   19.2830 C   0  0  0  0  0
  -20.0690  -35.9550   15.8820 O   0  0  0  0  0
  -20.1990  -37.4370   15.8820 C   0  0  0  0  0
  -19.0980  -33.6610   21.9920 C   0  0  0  0  0
  -18.8100  -32.5210   21.1830 C   0  0  0  0  0
  -17.4520  -32.3350   20.7780 C   0  0  0  0  0
  -16.4170  -33.2730   21.1780 C   0  0  0  0  0
  -16.7000  -34.4010   21.9880 C   0  0  0  0  0
  -18.0690  -34.5420   22.3680 C   0  0  0  0  0
  -14.7860  -32.8190   20.5240 Br  0  0  0  0  0
  -15.6910  -35.4540   22.4810 C   0  0  0  0  0
  -14.2590  -35.6570   25.9730 C   0  0  0  0  0
  -14.4620  -34.1290   25.8850 C   0  0  0  0  0
  -14.6010  -34.0250   24.3150 C   0  0  0  0  0
  -15.2820  -35.3250   23.8710 N   0  3  0  0  0
  -14.3020  -36.2570   24.5330 C   0  0  0  0  0
  -17.3350  -38.2190   13.5550 C   0  0  0  0  0
  -18.1380  -38.5400   14.7330 N   0  3  0  0  0
  -17.8940  -39.9830   14.8510 C   0  0  0  0  0
  -16.3620  -39.9680   14.9020 C   0  0  0  0  0
  -15.9450  -38.7570   14.0180 C   0  0  0  0  0
  -19.6010  -38.1560   14.6320 C   0  0  0  0  0
  -24.8940  -30.0890   25.2580 O   0  0  0  0  0
  -25.2619  -32.0562   23.4042 H   0  0  0  0  0
  -20.9283  -29.6135   22.9739 H   0  0  0  0  0
  -22.5376  -28.9680   24.8094 H   0  0  0  0  0
  -19.7185  -30.5404   21.1972 H   0  0  0  0  0
  -19.9586  -31.5379   19.6137 H   0  0  0  0  0
  -20.7793  -31.9407   17.9538 H   0  0  0  0  0
  -19.9655  -33.3750   16.1060 H   0  0  0  0  0
  -21.3815  -36.8962   18.2389 H   0  0  0  0  0
  -22.2180  -35.4791   20.1456 H   0  0  0  0  0
  -21.2664  -37.6578   15.8895 H   0  0  0  0  0
  -19.6444  -37.8000   16.7473 H   0  0  0  0  0
  -20.1203  -33.8494   22.3198 H   0  0  0  0  0
  -17.1889  -31.4767   20.1598 H   0  0  0  0  0
  -18.3353  -35.3934   22.9943 H   0  0  0  0  0
  -14.7910  -35.3278   21.8792 H   0  0  0  0  0
  -16.1830  -36.4224   22.3903 H   0  0  0  0  0
  -15.0491  -36.0991   26.5799 H   0  0  0  0  0
  -13.2955  -35.8746   26.4340 H   0  0  0  0  0
  -15.2970  -33.7296   26.4606 H   0  0  0  0  0
  -13.6744  -33.5215   26.3307 H   0  0  0  0  0
  -15.1849  -33.1515   24.0249 H   0  0  0  0  0
  -13.6289  -33.9026   23.8374 H   0  0  0  0  0
  -16.2514  -35.4920   24.1406 H   0  0  0  0  0
  -13.3301  -36.3013   24.0414 H   0  0  0  0  0
  -14.5945  -37.3064   24.4980 H   0  0  0  0  0
  -17.3405  -37.1641   13.2806 H   0  0  0  0  0
  -17.7013  -38.6587   12.6274 H   0  0  0  0  0
  -17.8770  -38.0064   15.5622 H   0  0  0  0  0
  -18.3200  -40.5868   14.0497 H   0  0  0  0  0
  -18.3762  -40.4611   15.7036 H   0  0  0  0  0
  -15.9915  -39.8714   15.9225 H   0  0  0  0  0
  -15.9353  -40.9022   14.5369 H   0  0  0  0  0
  -15.3437  -38.0169   14.5461 H   0  0  0  0  0
  -15.2834  -39.0246   13.1941 H   0  0  0  0  0
  -19.6792  -37.4519   13.8037 H   0  0  0  0  0
  -20.1572  -39.0861   14.5150 H   0  0  0  0  0
  -25.6794  -30.6394   25.2162 H   0  0  0  0  0
  1 38  1  0  0  0
  1  6  4  0  0  0
  1  2  4  0  0  0
  2  3  4  0  0  0
  3  7  4  0  0  0
  3  4  4  0  0  0
  4  9  4  0  0  0
  4  5  4  0  0  0
  5  6  4  0  0  0
  9 10  1  0  0  0
  9  8  4  0  0  0
  8 11  1  0  0  0
  8  7  4  0  0  0
 11 16  4  0  0  0
 11 12  4  0  0  0
 12 13  4  0  0  0
 13 14  4  0  0  0
 14 17  1  0  0  0
 14 15  4  0  0  0
 15 16  4  0  0  0
 17 18  1  0  0  0
 18 37  1  0  0  0
 37 33  1  0  0  0
 33 34  1  0  0  0
 33 32  1  0  0  0
 32 36  1  0  0  0
 36 35  1  0  0  0
 35 34  1  0  0  0
 10 20  1  0  0  0
 20 19  4  0  0  0
 20 21  4  0  0  0
 21 22  4  0  0  0
 22 25  1  0  0  0
 22 23  4  0  0  0
 23 26  1  0  0  0
 23 24  4  0  0  0
 24 19  4  0  0  0
 26 30  1  0  0  0
 30 31  1  0  0  0
 30 29  1  0  0  0
 29 28  1  0  0  0
 28 27  1  0  0  0
 27 31  1  0  0  0
  2 39  1  0  0  0
  5 40  1  0  0  0
  6 41  1  0  0  0
 10 42  1  0  0  0
 10 43  1  0  0  0
 12 44  1  0  0  0
 13 45  1  0  0  0
 15 46  1  0  0  0
 16 47  1  0  0  0
 18 48  1  0  0  0
 18 49  1  0  0  0
 19 50  1  0  0  0
 21 51  1  0  0  0
 24 52  1  0  0  0
 26 53  1  0  0  0
 26 54  1  0  0  0
 27 55  1  0  0  0
 27 56  1  0  0  0
 28 57  1  0  0  0
 28 58  1  0  0  0
 29 59  1  0  0  0
 29 60  1  0  0  0
 30 61  1  0  0  0
 31 62  1  0  0  0
 31 63  1  0  0  0
 32 64  1  0  0  0
 32 65  1  0  0  0
 33 66  1  0  0  0
 34 67  1  0  0  0
 34 68  1  0  0  0
 35 69  1  0  0  0
 35 70  1  0  0  0
 36 71  1  0  0  0
 36 72  1  0  0  0
 37 73  1  0  0  0
 37 74  1  0  0  0
 38 75  1  0  0  0
M  END
$$$$
