### 
### Created by X-TOOL on Mon Sep 10 21:13:05 2018
### 

@<TRIPOS>MOLECULE
3s8o_ligand
   67    68     1     0     0
SMALL
GAST_HUCK


@<TRIPOS>ATOM
      1 C           7.4160   -7.5660   -2.4020 C.2       1 ACE         0.1753
      2 O           6.9010   -8.6890   -2.4580 O.2       1 ACE        -0.3972
      3 CH3         7.2330   -6.5760   -3.5800 C.3       1 ACE         0.0258
      4 N           8.1320   -7.1190   -1.3550 N.am      1 PTR        -0.2628
      5 CA          8.3970   -8.0000   -0.1860 C.3       1 PTR         0.1465
      6 C           8.0150   -7.2410    1.0770 C.2       1 PTR         0.2045
      7 O           8.3060   -6.0610    1.2030 O.2       1 PTR        -0.3944
      8 CB          9.9270   -8.3530   -0.1620 C.3       1 PTR         0.0400
      9 CG         10.3270   -9.0670   -1.4490 C.ar      1 PTR        -0.0004
     10 CD1        10.8070   -8.3000   -2.4940 C.ar      1 PTR        -0.0239
     11 CD2        10.1600  -10.4760   -1.5620 C.ar      1 PTR        -0.0239
     12 CE1        11.0870   -8.9320   -3.7060 C.ar      1 PTR         0.0115
     13 CE2        10.4280  -11.1040   -2.8020 C.ar      1 PTR         0.0115
     14 CZ         10.9170  -10.3270   -3.8420 C.ar      1 PTR         0.1728
     15 OH         11.2410  -10.7770   -5.1030 O.3       1 PTR        -0.2040
     16 P          10.9680  -12.3220   -5.6220 P.3       1 PTR         0.1348
     17 O1P        11.1130  -12.1800   -7.1870 O.co2     1 PTR        -0.6653
     18 O2P        11.9680  -13.2660   -5.1080 O.co2     1 PTR        -0.6653
     19 O3P         9.5570  -12.6400   -5.3080 O.co2     1 PTR        -0.6653
     20 O           7.9630   -5.6880    4.7190 O.2       1 02K        -0.3419
     21 CD          3.9170   -8.1020    3.2880 C.3       1 02K        -0.0532
     22 CG          5.0380   -9.1390    3.5640 C.3       1 02K        -0.0516
     23 CE          4.4520   -7.0180    2.3330 C.3       1 02K        -0.0516
     24 CB          6.3240   -8.4900    4.1740 C.3       1 02K        -0.0199
     25 CH          5.7540   -6.3990    2.8750 C.3       1 02K        -0.0199
     26 N           7.3640   -7.9490    1.9910 N.am      1 02K        -0.2738
     27 C           8.0740   -6.7300    4.0040 C.2       1 02K         0.2267
     28 CA          6.8760   -7.3850    3.2550 C.3       1 02K         0.1331
     29 N           9.2200   -7.4430    3.9360 N.am      1 ASN        -0.2608
     30 CA         10.4330   -7.0030    4.6420 C.3       1 ASN         0.1474
     31 C          11.4430   -6.3300    3.7180 C.2       1 ASN         0.2017
     32 O          12.6020   -6.2120    4.0730 O.2       1 ASN        -0.3945
     33 CB         11.0340   -8.2050    5.4240 C.3       1 ASN         0.0774
     34 CG         11.5690   -9.3040    4.4620 C.2       1 ASN         0.1781
     35 OD1        11.1160   -9.3850    3.2960 O.2       1 ASN        -0.3970
     36 ND2        12.5000  -10.0960    4.9730 N.am      1 ASN        -0.3007
     37 N          10.9980   -5.7770    2.6080 N.am      1 NH2        -0.2988
     38 H1          7.7573   -5.6359   -3.3536 H         1 ACE         0.0467
     39 H2          6.1617   -6.3726   -3.7250 H         1 ACE         0.0467
     40 H3          7.6501   -7.0167   -4.4975 H         1 ACE         0.0467
     41 H4          8.4898   -6.1852   -1.3624 H         1 PTR         0.1885
     42 H5          7.8026   -8.9224   -0.2628 H         1 PTR         0.0840
     43 H6         10.1344   -9.0091    0.6962 H         1 PTR         0.0584
     44 H7         10.5115   -7.4263   -0.0648 H         1 PTR         0.0584
     45 H8         10.9621   -7.2338   -2.3748 H         1 PTR         0.0703
     46 H9          9.8320  -11.0603   -0.7099 H         1 PTR         0.0703
     47 H10        11.4375   -8.3478   -4.5492 H         1 PTR         0.0736
     48 H11        10.2554  -12.1658   -2.9356 H         1 PTR         0.0736
     49 H12         3.6054   -7.6366    4.2347 H         1 02K         0.0265
     50 H13         3.0553   -8.6061    2.8261 H         1 02K         0.0265
     51 H14         5.3064   -9.6278    2.6159 H         1 02K         0.0265
     52 H15         4.6554   -9.8916    4.2691 H         1 02K         0.0265
     53 H16         3.6950   -6.2271    2.2262 H         1 02K         0.0265
     54 H17         4.6507   -7.4705    1.3503 H         1 02K         0.0265
     55 H18         7.0920   -9.2669    4.3031 H         1 02K         0.0277
     56 H19         6.0764   -8.0530    5.1526 H         1 02K         0.0277
     57 H20         5.4996   -5.8190    3.7744 H         1 02K         0.0277
     58 H21         6.1500   -5.7232    2.1027 H         1 02K         0.0277
     59 H22         7.1971   -8.9180    1.8090 H         1 02K         0.1839
     60 H23         9.2437   -8.2845    3.3962 H         1 ASN         0.1891
     61 H24        10.1286   -6.2480    5.3818 H         1 ASN         0.0828
     62 H25        10.2530   -8.6406    6.0644 H         1 ASN         0.0551
     63 H26        11.8632   -7.8446    6.0505 H         1 ASN         0.0551
     64 H27        12.8943  -10.8276    4.4169 H         1 ASN         0.1814
     65 H28        12.8084   -9.9622    5.9148 H         1 ASN         0.1814
     66 H29        11.6361   -5.3283    1.9823 H         1 NH2         0.1815
     67 H30        10.0222   -5.8060    2.3913 H         1 NH2         0.1815
@<TRIPOS>BOND
     1    1    2 2  
     2    1    3 1  
     3    4    1 am 
     4    5    4 1  
     5    6    5 1  
     6    5    8 1  
     7    6    7 2  
     8   26    6 am 
     9    8    9 1  
    10    9   10 ar 
    11    9   11 ar 
    12   10   12 ar 
    13   11   13 ar 
    14   12   14 ar 
    15   13   14 ar 
    16   14   15 1  
    17   15   16 1  
    18   16   17 ar 
    19   16   18 ar 
    20   16   19 ar 
    21   27   20 2  
    22   22   21 1  
    23   23   21 1  
    24   24   22 1  
    25   25   23 1  
    26   28   24 1  
    27   28   25 1  
    28   28   26 1  
    29   27   28 1  
    30   27   29 am 
    31   29   30 1  
    32   30   31 1  
    33   30   33 1  
    34   31   32 2  
    35   31   37 am 
    36   33   34 1  
    37   34   35 2  
    38   34   36 am 
    39    3   38 1  
    40    3   39 1  
    41    3   40 1  
    42    4   41 1  
    43    5   42 1  
    44    8   43 1  
    45    8   44 1  
    46   10   45 1  
    47   11   46 1  
    48   12   47 1  
    49   13   48 1  
    50   21   49 1  
    51   21   50 1  
    52   22   51 1  
    53   22   52 1  
    54   23   53 1  
    55   23   54 1  
    56   24   55 1  
    57   24   56 1  
    58   25   57 1  
    59   25   58 1  
    60   26   59 1  
    61   29   60 1  
    62   30   61 1  
    63   33   62 1  
    64   33   63 1  
    65   36   64 1  
    66   36   65 1  
    67   37   66 1  
    68   37   67 1  
@<TRIPOS>SUBSTRUCTURE
     1 ACE         1

