3s8o_ligand
  -I-interpret- 

 69 70  0  0  0  0  0  0  0  0999 V2000
    7.4160   -7.5660   -2.4020 C   0  0  0  0  0
    6.9010   -8.6890   -2.4580 O   0  0  0  0  0
    7.2330   -6.5760   -3.5800 C   0  0  0  0  0
    8.1320   -7.1190   -1.3550 N   0  0  0  0  0
    8.3970   -8.0000   -0.1860 C   0  0  0  0  0
    8.0150   -7.2410    1.0770 C   0  0  0  0  0
    8.3060   -6.0610    1.2030 O   0  0  0  0  0
    9.9270   -8.3530   -0.1620 C   0  0  0  0  0
   10.3270   -9.0670   -1.4490 C   0  0  0  0  0
   10.8070   -8.3000   -2.4940 C   0  0  0  0  0
   10.1600  -10.4760   -1.5620 C   0  0  0  0  0
   11.0870   -8.9320   -3.7060 C   0  0  0  0  0
   10.4280  -11.1040   -2.8020 C   0  0  0  0  0
   10.9170  -10.3270   -3.8420 C   0  0  0  0  0
   11.2410  -10.7770   -5.1030 O   0  0  0  0  0
   10.9680  -12.3220   -5.6220 P   0  0  0  0  0
   11.1130  -12.1800   -7.1870 O   0  0  0  0  0
   11.9680  -13.2660   -5.1080 O   0  0  0  0  0
    9.5570  -12.6400   -5.3080 O   0  0  0  0  0
    7.9630   -5.6880    4.7190 O   0  0  0  0  0
    3.9170   -8.1020    3.2880 C   0  0  0  0  0
    5.0380   -9.1390    3.5640 C   0  0  0  0  0
    4.4520   -7.0180    2.3330 C   0  0  0  0  0
    6.3240   -8.4900    4.1740 C   0  0  0  0  0
    5.7540   -6.3990    2.8750 C   0  0  0  0  0
    7.3640   -7.9490    1.9910 N   0  0  0  0  0
    8.0740   -6.7300    4.0040 C   0  0  0  0  0
    6.8760   -7.3850    3.2550 C   0  0  0  0  0
    9.2200   -7.4430    3.9360 N   0  0  0  0  0
   10.4330   -7.0030    4.6420 C   0  0  0  0  0
   11.4430   -6.3300    3.7180 C   0  0  0  0  0
   12.6020   -6.2120    4.0730 O   0  0  0  0  0
   11.0340   -8.2050    5.4240 C   0  0  0  0  0
   11.5690   -9.3040    4.4620 C   0  0  0  0  0
   11.1160   -9.3850    3.2960 O   0  0  0  0  0
   12.5000  -10.0960    4.9730 N   0  0  0  0  0
   10.9980   -5.7770    2.6080 N   0  0  0  0  0
    7.6466   -7.0138   -4.4885 H   0  0  0  0  0
    6.1712   -6.3754   -3.7227 H   0  0  0  0  0
    7.7529   -5.6449   -3.3545 H   0  0  0  0  0
    8.4969   -6.1665   -1.3625 H   0  0  0  0  0
    7.8173   -8.9209   -0.2489 H   0  0  0  0  0
   10.1272   -9.0089    0.6853 H   0  0  0  0  0
   10.5029   -7.4319   -0.0728 H   0  0  0  0  0
   10.9629   -7.2279   -2.3742 H   0  0  0  0  0
    9.8302  -11.0636   -0.7052 H   0  0  0  0  0
   11.4395   -8.3446   -4.5538 H   0  0  0  0  0
   10.2544  -12.1717   -2.9363 H   0  0  0  0  0
   10.4555  -11.5613   -7.5133 H   0  0  0  0  0
    8.9866  -11.9667   -5.6861 H   0  0  0  0  0
    3.6062   -7.6416    4.2258 H   0  0  0  0  0
    3.0619   -8.6010    2.8320 H   0  0  0  0  0
    5.3125   -9.5960    2.6133 H   0  0  0  0  0
    4.6548   -9.8626    4.2835 H   0  0  0  0  0
    3.7026   -6.2318    2.2414 H   0  0  0  0  0
    4.6585   -7.4753    1.3654 H   0  0  0  0  0
    7.0848   -9.2624    4.2868 H   0  0  0  0  0
    6.0685   -8.0477    5.1369 H   0  0  0  0  0
    5.4825   -5.8807    3.7947 H   0  0  0  0  0
    6.1534   -5.7819    2.0702 H   0  0  0  0  0
    7.1937   -8.9374    1.8054 H   0  0  0  0  0
    9.2442   -8.3013    3.3854 H   0  0  0  0  0
   10.1580   -6.2282    5.3576 H   0  0  0  0  0
   10.2491   -8.6408    6.0422 H   0  0  0  0  0
   11.8653   -7.8417    6.0282 H   0  0  0  0  0
   12.9038  -10.8409    4.4051 H   0  0  0  0  0
   12.8130   -9.9609    5.9343 H   0  0  0  0  0
   11.6297   -5.2328    2.0205 H   0  0  0  0  0
   10.0218   -5.8931    2.3362 H   0  0  0  0  0
  1  2  2  0  0  0
  1  3  1  0  0  0
  4  1  1  0  0  0
  5  4  1  0  0  0
  6  5  1  0  0  0
  5  8  1  0  0  0
  6  7  2  0  0  0
 26  6  1  0  0  0
  8  9  1  0  0  0
  9 10  4  0  0  0
  9 11  4  0  0  0
 10 12  4  0  0  0
 11 13  4  0  0  0
 12 14  4  0  0  0
 13 14  4  0  0  0
 14 15  1  0  0  0
 15 16  1  0  0  0
 16 17  1  0  0  0
 16 18  2  0  0  0
 16 19  1  0  0  0
 27 20  2  0  0  0
 22 21  1  0  0  0
 23 21  1  0  0  0
 24 22  1  0  0  0
 25 23  1  0  0  0
 28 24  1  0  0  0
 28 25  1  0  0  0
 28 26  1  0  0  0
 27 28  1  0  0  0
 27 29  1  0  0  0
 29 30  1  0  0  0
 30 31  1  0  0  0
 30 33  1  0  0  0
 31 32  2  0  0  0
 31 37  1  0  0  0
 33 34  1  0  0  0
 34 35  2  0  0  0
 34 36  1  0  0  0
  3 38  1  0  0  0
  3 39  1  0  0  0
  3 40  1  0  0  0
  4 41  1  0  0  0
  5 42  1  0  0  0
  8 43  1  0  0  0
  8 44  1  0  0  0
 10 45  1  0  0  0
 11 46  1  0  0  0
 12 47  1  0  0  0
 13 48  1  0  0  0
 17 49  1  0  0  0
 19 50  1  0  0  0
 21 51  1  0  0  0
 21 52  1  0  0  0
 22 53  1  0  0  0
 22 54  1  0  0  0
 23 55  1  0  0  0
 23 56  1  0  0  0
 24 57  1  0  0  0
 24 58  1  0  0  0
 25 59  1  0  0  0
 25 60  1  0  0  0
 26 61  1  0  0  0
 29 62  1  0  0  0
 30 63  1  0  0  0
 33 64  1  0  0  0
 33 65  1  0  0  0
 36 66  1  0  0  0
 36 67  1  0  0  0
 37 68  1  0  0  0
 37 69  1  0  0  0
M  END
$$$$
