3tk2_ligand
  -I-interpret- 

 24 24  0  0  0  0  0  0  0  0999 V2000
    5.0910   -8.0660  -17.0100 N   0  3  0  0  0
    6.1950   -7.7130  -16.0650 C   0  0  0  0  0
    7.4980   -8.3110  -16.5690 C   0  0  0  0  0
    8.4770   -8.4640  -15.8120 O   0  0  0  0  0
    5.9930   -8.2650  -14.6590 C   0  0  0  0  0
    5.0510   -7.4180  -13.8680 C   0  0  0  0  0
    3.6960   -7.8150  -13.7200 C   0  0  0  0  0
    5.5270   -6.2140  -13.3290 C   0  0  0  0  0
    2.8040   -6.9950  -13.0240 C   0  0  0  0  0
    4.6010   -5.3860  -12.6400 C   0  0  0  0  0
    3.2500   -5.7760  -12.4830 C   0  0  0  0  0
    7.6000   -8.6650  -17.7130 O   0  0  0  0  0
    5.2897   -7.6668  -17.9274 H   0  0  0  0  0
    5.0225   -9.0808  -17.0871 H   0  0  0  0  0
    4.2105   -7.6904  -16.6578 H   0  0  0  0  0
    6.2097   -6.6240  -16.0201 H   0  0  0  0  0
    8.2562   -8.1400  -14.9357 H   0  0  0  0  0
    6.9572   -8.2758  -14.1507 H   0  0  0  0  0
    5.5719   -9.2672  -14.7389 H   0  0  0  0  0
    3.3525   -8.7567  -14.1481 H   0  0  0  0  0
    6.5722   -5.9234  -13.4352 H   0  0  0  0  0
    1.7647   -7.2995  -12.9007 H   0  0  0  0  0
    4.9365   -4.4352  -12.2257 H   0  0  0  0  0
    2.5556   -5.1322  -11.9432 H   0  0  0  0  0
  1  2  1  0  0  0
  2  3  1  0  0  0
  2  5  1  0  0  0
  3  4  1  0  0  0
  3 12  2  0  0  0
  5  6  1  0  0  0
  6  7  4  0  0  0
  6  8  4  0  0  0
  7  9  4  0  0  0
  8 10  4  0  0  0
  9 11  4  0  0  0
 10 11  4  0  0  0
  1 13  1  0  0  0
  1 14  1  0  0  0
  1 15  1  0  0  0
  2 16  1  0  0  0
  4 17  1  0  0  0
  5 18  1  0  0  0
  5 19  1  0  0  0
  7 20  1  0  0  0
  8 21  1  0  0  0
  9 22  1  0  0  0
 10 23  1  0  0  0
 11 24  1  0  0  0
M  END
$$$$
