### 
### Created by X-TOOL on Mon Sep 10 21:13:08 2018
### 

@<TRIPOS>MOLECULE
3tk2_ligand
   23    23     1     0     0
SMALL
GAST_HUCK


@<TRIPOS>ATOM
      1 N           5.0910   -8.0660  -17.0100 N.4       1 PHE         0.2341
      2 CA          6.1950   -7.7130  -16.0650 C.3       1 PHE         0.0378
      3 C           7.4980   -8.3110  -16.5690 C.2       1 PHE         0.0866
      4 O           8.4770   -8.4640  -15.8120 O.co2     1 PHE        -0.5641
      5 CB          5.9930   -8.2650  -14.6590 C.3       1 PHE         0.0361
      6 CG          5.0510   -7.4180  -13.8680 C.ar      1 PHE        -0.0360
      7 CD1         3.6960   -7.8150  -13.7200 C.ar      1 PHE        -0.0600
      8 CD2         5.5270   -6.2140  -13.3290 C.ar      1 PHE        -0.0600
      9 CE1         2.8040   -6.9950  -13.0240 C.ar      1 PHE        -0.0686
     10 CE2         4.6010   -5.3860  -12.6400 C.ar      1 PHE        -0.0686
     11 CZ          3.2500   -5.7760  -12.4830 C.ar      1 PHE        -0.0687
     12 OXT         7.6000   -8.6650  -17.7130 O.co2     1 PHE        -0.5641
     13 H1          4.2253   -7.6705  -16.6780 H         1 PHE         0.2012
     14 H2          5.0032   -9.0687  -17.0646 H         1 PHE         0.2012
     15 H3          5.3003   -7.6967  -17.9243 H         1 PHE         0.2012
     16 H4          6.2768   -6.6172  -16.0151 H         1 PHE         0.1048
     17 H5          6.9645   -8.2954  -14.1440 H         1 PHE         0.0500
     18 H6          5.5837   -9.2835  -14.7303 H         1 PHE         0.0500
     19 H7          3.3544   -8.7516  -14.1457 H         1 PHE         0.0557
     20 H8          6.5664   -5.9250  -13.4346 H         1 PHE         0.0557
     21 H9          1.7704   -7.2979  -12.9013 H         1 PHE         0.0599
     22 H10         4.9346   -4.4405  -12.2280 H         1 PHE         0.0599
     23 H11         2.5594   -5.1357  -11.9462 H         1 PHE         0.0559
@<TRIPOS>BOND
     1    1    2 1  
     2    2    3 1  
     3    2    5 1  
     4    3    4 ar 
     5    3   12 ar 
     6    5    6 1  
     7    6    7 ar 
     8    6    8 ar 
     9    7    9 ar 
    10    8   10 ar 
    11    9   11 ar 
    12   10   11 ar 
    13    1   13 1  
    14    1   14 1  
    15    1   15 1  
    16    2   16 1  
    17    5   17 1  
    18    5   18 1  
    19    7   19 1  
    20    8   20 1  
    21    9   21 1  
    22   10   22 1  
    23   11   23 1  
@<TRIPOS>SUBSTRUCTURE
     1 PHE         1

