### 
### Created by X-TOOL on Wed Jan  1 15:39:36 2020
### 

@<TRIPOS>MOLECULE
5oss_ligand
   26    27     1     0     0
SMALL
GAST_HUCK


@<TRIPOS>ATOM
      1 C4        -19.4770  -29.2510   -6.8130 C.3       1 AEZ         0.0986
      2 C5        -19.5160  -28.1340   -5.7950 C.3       1 AEZ         0.0598
      3 C6        -20.6970  -27.2340   -5.8820 C.3       1 AEZ         0.0587
      4 C7        -19.4820  -28.7880   -4.4810 C.2       1 AEZ         0.0587
      5 C10       -19.7000  -29.3590   -2.3500 C.2       1 AEZ         0.0834
      6 C3        -18.2090  -30.0800   -6.5460 C.3       1 AEZ         0.1128
      7 C1        -18.8690  -30.1150   -4.2470 C.2       1 AEZ         0.0209
      8 C2        -18.2220  -30.9250   -5.2710 C.3       1 AEZ         0.1055
      9 O2        -16.9070  -31.3430   -4.8550 O.3       1 AEZ        -0.3834
     10 O4        -19.4440  -28.7160   -8.1450 O.3       1 AEZ        -0.3869
     11 O3        -17.8780  -30.9340   -7.6270 O.3       1 AEZ        -0.3853
     12 O6        -21.9250  -27.9320   -5.6800 O.3       1 AEZ        -0.3928
     13 N8        -19.0440  -30.3680   -2.9520 N.2       1 AEZ        -0.3359
     14 N9        -19.9880  -28.4050   -3.2930 N.pl3     1 AEZ        -0.2702
     15 H1        -20.3678  -29.8865   -6.7003 H         1 AEZ         0.0645
     16 H2        -18.6151  -27.5158   -5.9220 H         1 AEZ         0.0499
     17 H3        -20.7145  -26.7684   -6.8784 H         1 AEZ         0.0581
     18 H4        -20.6037  -26.4525   -5.1136 H         1 AEZ         0.0581
     19 H5        -19.9585  -29.3083   -1.2933 H         1 AEZ         0.1131
     20 H6        -17.3910  -29.3527   -6.4376 H         1 AEZ         0.0660
     21 H7        -18.8226  -31.8290   -5.4503 H         1 AEZ         0.0701
     22 H8        -16.3696  -30.5770   -4.6907 H         1 AEZ         0.2118
     23 H9        -20.2305  -28.2062   -8.2999 H         1 AEZ         0.2101
     24 H10       -17.8633  -30.4315   -8.4331 H         1 AEZ         0.2102
     25 H11       -22.0179  -28.6056   -6.3435 H         1 AEZ         0.2096
     26 H12       -20.5089  -27.5335   -3.1198 H         1 AEZ         0.2347
@<TRIPOS>BOND
     1    2    1 1  
     2    1    6 1  
     3    1   10 1  
     4    2    3 1  
     5    4    2 1  
     6    3   12 1  
     7    4    7 2  
     8   14    4 1  
     9    5   13 2  
    10    5   14 1  
    11    6    8 1  
    12    6   11 1  
    13    7    8 1  
    14    7   13 1  
    15    8    9 1  
    16    1   15 1  
    17    2   16 1  
    18    3   17 1  
    19    3   18 1  
    20    5   19 1  
    21    6   20 1  
    22    8   21 1  
    23    9   22 1  
    24   10   23 1  
    25   11   24 1  
    26   12   25 1  
    27   14   26 1  
@<TRIPOS>SUBSTRUCTURE
     1 AEZ         1

