5oss_ligand
  -I-interpret- 

 25 26  0  0  0  0  0  0  0  0999 V2000
  -19.4770  -29.2510   -6.8130 C   0  0  0  0  0
  -19.5160  -28.1340   -5.7950 C   0  0  0  0  0
  -20.6970  -27.2340   -5.8820 C   0  0  0  0  0
  -19.4820  -28.7880   -4.4810 C   0  0  0  0  0
  -19.7000  -29.3590   -2.3500 C   0  0  0  0  0
  -18.2090  -30.0800   -6.5460 C   0  0  0  0  0
  -18.8690  -30.1150   -4.2470 C   0  0  0  0  0
  -18.2220  -30.9250   -5.2710 C   0  0  0  0  0
  -16.9070  -31.3430   -4.8550 O   0  0  0  0  0
  -19.4440  -28.7160   -8.1450 O   0  0  0  0  0
  -17.8780  -30.9340   -7.6270 O   0  0  0  0  0
  -21.9250  -27.9320   -5.6800 O   0  0  0  0  0
  -19.0440  -30.3680   -2.9520 N   0  0  0  0  0
  -19.9880  -28.4050   -3.2930 N   0  0  0  0  0
  -20.3683  -29.8722   -6.7254 H   0  0  0  0  0
  -18.6680  -27.4748   -5.9807 H   0  0  0  0  0
  -20.7165  -26.7968   -6.8803 H   0  0  0  0  0
  -20.6049  -26.4784   -5.1018 H   0  0  0  0  0
  -19.9587  -29.3082   -1.2924 H   0  0  0  0  0
  -17.4546  -29.3040   -6.4163 H   0  0  0  0  0
  -18.7634  -31.8539   -5.4502 H   0  0  0  0  0
  -16.5069  -31.8733   -5.5480 H   0  0  0  0  0
  -20.2388  -28.2009   -8.3015 H   0  0  0  0  0
  -17.8632  -30.4262   -8.4416 H   0  0  0  0  0
  -22.6572  -27.3145   -5.7446 H   0  0  0  0  0
  2  1  1  0  0  0
  1  6  1  0  0  0
  1 10  1  0  0  0
  2  3  1  0  0  0
  4  2  1  0  0  0
  3 12  1  0  0  0
  4  7  4  0  0  0
 14  4  4  0  0  0
  5 13  4  0  0  0
  5 14  4  0  0  0
  6  8  1  0  0  0
  6 11  1  0  0  0
  7  8  1  0  0  0
  7 13  4  0  0  0
  8  9  1  0  0  0
  1 15  1  0  0  0
  2 16  1  0  0  0
  3 17  1  0  0  0
  3 18  1  0  0  0
  5 19  1  0  0  0
  6 20  1  0  0  0
  8 21  1  0  0  0
  9 22  1  0  0  0
 10 23  1  0  0  0
 11 24  1  0  0  0
 12 25  1  0  0  0
M  END
$$$$
