### 
### Created by X-TOOL on Mon Sep 10 21:13:02 2018
### 

@<TRIPOS>MOLECULE
3kgq_ligand
   18    17     1     0     0
SMALL
GAST_HUCK


@<TRIPOS>ATOM
      1 C1          3.8950    0.7110    6.0870 C.2       1 CIT         0.0371
      2 O1          3.1130    0.9690    7.0150 O.co2     1 CIT        -0.5690
      3 O2          3.8160    1.4190    5.0750 O.co2     1 CIT        -0.5690
      4 C2          4.9030   -0.4100    6.1880 C.3       1 CIT         0.0356
      5 C3          6.3020    0.1900    6.0690 C.3       1 CIT         0.1328
      6 O7          6.3780    1.3480    6.9520 O.3       1 CIT        -0.3818
      7 C4          7.3590   -0.8330    6.4800 C.3       1 CIT         0.0356
      8 C5          8.7480   -0.2500    6.3540 C.2       1 CIT         0.0371
      9 O3          9.2620   -0.0980    5.2240 O.co2     1 CIT        -0.5690
     10 O4          9.3970    0.0820    7.3750 O.co2     1 CIT        -0.5690
     11 C6          6.5130    0.6150    4.6180 C.2       1 CIT         0.0796
     12 O5          6.1950   -0.1480    3.6760 O.co2     1 CIT        -0.5449
     13 O6          6.9990    1.7400    4.3620 O.co2     1 CIT        -0.5449
     14 H1          4.7381   -1.1327    5.3753 H         1 CIT         0.0452
     15 H2          4.7978   -0.9184    7.1578 H         1 CIT         0.0452
     16 H3          6.2149    1.0738    7.8468 H         1 CIT         0.2091
     17 H4          7.2783   -1.7162    5.8293 H         1 CIT         0.0452
     18 H5          7.1861   -1.1302    7.5249 H         1 CIT         0.0452
@<TRIPOS>BOND
     1    1    2 ar 
     2    1    3 ar 
     3    1    4 1  
     4    4    5 1  
     5    5    6 1  
     6    5    7 1  
     7    5   11 1  
     8    7    8 1  
     9    8    9 ar 
    10    8   10 ar 
    11   11   12 ar 
    12   11   13 ar 
    13    4   14 1  
    14    4   15 1  
    15    6   16 1  
    16    7   17 1  
    17    7   18 1  
@<TRIPOS>SUBSTRUCTURE
     1 CIT         1

