3kgq_ligand
  -I-interpret- 

 21 20  0  0  0  0  0  0  0  0999 V2000
    3.8950    0.7110    6.0870 C   0  0  0  0  0
    3.1130    0.9690    7.0150 O   0  0  0  0  0
    3.8160    1.4190    5.0750 O   0  0  0  0  0
    4.9030   -0.4100    6.1880 C   0  0  0  0  0
    6.3020    0.1900    6.0690 C   0  0  0  0  0
    6.3780    1.3480    6.9520 O   0  0  0  0  0
    7.3590   -0.8330    6.4800 C   0  0  0  0  0
    8.7480   -0.2500    6.3540 C   0  0  0  0  0
    9.2620   -0.0980    5.2240 O   0  0  0  0  0
    9.3970    0.0820    7.3750 O   0  0  0  0  0
    6.5130    0.6150    4.6180 C   0  0  0  0  0
    6.1950   -0.1480    3.6760 O   0  0  0  0  0
    6.9990    1.7400    4.3620 O   0  0  0  0  0
    3.2664    0.3589    7.7402 H   0  0  0  0  0
    4.7379   -1.1339    5.3900 H   0  0  0  0  0
    4.7966   -0.9231    7.1438 H   0  0  0  0  0
    5.7134    1.9906    6.6931 H   0  0  0  0  0
    7.2814   -1.7009    5.8252 H   0  0  0  0  0
    7.1894   -1.1155    7.5190 H   0  0  0  0  0
    8.8712   -0.0948    8.1585 H   0  0  0  0  0
    5.8402   -0.9652    4.0335 H   0  0  0  0  0
  1  2  1  0  0  0
  1  3  2  0  0  0
  1  4  1  0  0  0
  4  5  1  0  0  0
  5  6  1  0  0  0
  5  7  1  0  0  0
  5 11  1  0  0  0
  7  8  1  0  0  0
  8  9  2  0  0  0
  8 10  1  0  0  0
 11 12  1  0  0  0
 11 13  2  0  0  0
  2 14  1  0  0  0
  4 15  1  0  0  0
  4 16  1  0  0  0
  6 17  1  0  0  0
  7 18  1  0  0  0
  7 19  1  0  0  0
 10 20  1  0  0  0
 12 21  1  0  0  0
M  END
$$$$
