5elw_ligand
  -I-interpret- 

 23 23  0  0  0  0  0  0  0  0999 V2000
  -41.0200  -24.3020   12.3270 O   0  0  0  0  0
  -40.4800  -23.6580   11.0740 P   0  0  0  0  0
  -39.0110  -23.2910   11.2320 O   0  0  0  0  0
  -40.6630  -24.4680    9.8230 O   0  0  0  0  0
  -41.4630  -22.1360   10.9120 C   0  0  0  0  0
  -40.9370  -21.0850    9.9450 C   0  0  0  0  0
  -41.7560  -19.8980   10.0310 O   0  0  0  0  0
  -40.9440  -21.4760    8.4910 C   0  0  0  0  0
  -39.9690  -20.6970    7.7070 N   0  0  0  0  0
  -39.8440  -19.3260    7.9170 N   0  0  0  0  0
  -38.9140  -18.9460    7.0170 C   0  0  0  0  0
  -38.4990  -20.0050    6.3010 N   0  0  0  0  0
  -39.1500  -21.0750    6.7360 C   0  0  0  0  0
  -40.8635  -23.7225   13.0762 H   0  0  0  0  0
  -38.8960  -22.7733   12.0322 H   0  0  0  0  0
  -41.4584  -21.6684   11.8966 H   0  0  0  0  0
  -42.4334  -22.4443   10.5229 H   0  0  0  0  0
  -39.9009  -20.9397   10.2509 H   0  0  0  0  0
  -41.7895  -19.5991   10.9427 H   0  0  0  0  0
  -41.9386  -21.2812    8.0897 H   0  0  0  0  0
  -40.6756  -22.5300    8.4195 H   0  0  0  0  0
  -38.5510  -17.9262    6.8888 H   0  0  0  0  0
  -39.0319  -22.0911    6.3596 H   0  0  0  0  0
  1  2  1  0  0  0
  2  3  1  0  0  0
  2  4  2  0  0  0
  2  5  1  0  0  0
  5  6  1  0  0  0
  6  7  1  0  0  0
  6  8  1  0  0  0
  8  9  1  0  0  0
  9 10  4  0  0  0
  9 13  4  0  0  0
 10 11  4  0  0  0
 11 12  4  0  0  0
 12 13  4  0  0  0
  1 14  1  0  0  0
  3 15  1  0  0  0
  5 16  1  0  0  0
  5 17  1  0  0  0
  6 18  1  0  0  0
  7 19  1  0  0  0
  8 20  1  0  0  0
  8 21  1  0  0  0
 11 22  1  0  0  0
 13 23  1  0  0  0
M  END
$$$$
