### 
### Created by X-TOOL on Mon Sep 10 21:13:25 2018
### 

@<TRIPOS>MOLECULE
5elw_ligand
   21    21     1     0     0
SMALL
GAST_HUCK


@<TRIPOS>ATOM
      1 O10       -41.0200  -24.3020   12.3270 O.co2     1 5LD        -0.5622
      2 P9        -40.4800  -23.6580   11.0740 P.3       1 5LD         0.0604
      3 O11       -39.0110  -23.2910   11.2320 O.co2     1 5LD        -0.5622
      4 O12       -40.6630  -24.4680    9.8230 O.co2     1 5LD        -0.5622
      5 C8        -41.4630  -22.1360   10.9120 C.3       1 5LD         0.0483
      6 C7        -40.9370  -21.0850    9.9450 C.3       1 5LD         0.0998
      7 O13       -41.7560  -19.8980   10.0310 O.3       1 5LD        -0.3875
      8 C6        -40.9440  -21.4760    8.4910 C.3       1 5LD         0.1031
      9 N2        -39.9690  -20.6970    7.7070 N.pl3     1 5LD        -0.1756
     10 N1        -39.8440  -19.3260    7.9170 N.2       1 5LD        -0.1901
     11 C5        -38.9140  -18.9460    7.0170 C.2       1 5LD         0.0618
     12 N4        -38.4990  -20.0050    6.3010 N.2       1 5LD        -0.2870
     13 C3        -39.1500  -21.0750    6.7360 C.2       1 5LD         0.1278
     14 H1        -41.5261  -21.6719   11.9073 H         1 5LD         0.0477
     15 H2        -42.4705  -22.4234   10.5768 H         1 5LD         0.0477
     16 H3        -39.9038  -20.8466   10.2377 H         1 5LD         0.0637
     17 H4        -42.6526  -20.1162    9.8052 H         1 5LD         0.2100
     18 H5        -41.9498  -21.3022    8.0810 H         1 5LD         0.0669
     19 H6        -40.6940  -22.5440    8.4089 H         1 5LD         0.0669
     20 H7        -38.5514  -17.9272    6.8889 H         1 5LD         0.0863
     21 H8        -39.0320  -22.0902    6.3600 H         1 5LD         0.1361
@<TRIPOS>BOND
     1    1    2 ar 
     2    2    3 ar 
     3    2    4 ar 
     4    2    5 1  
     5    5    6 1  
     6    6    7 1  
     7    6    8 1  
     8    8    9 1  
     9    9   10 1  
    10    9   13 1  
    11   10   11 2  
    12   11   12 1  
    13   12   13 2  
    14    5   14 1  
    15    5   15 1  
    16    6   16 1  
    17    7   17 1  
    18    8   18 1  
    19    8   19 1  
    20   11   20 1  
    21   13   21 1  
@<TRIPOS>SUBSTRUCTURE
     1 5LD         1

