### 
### Created by X-TOOL on Mon Sep 10 21:13:10 2018
### 

@<TRIPOS>MOLECULE
4ahr_ligand
   23    24     1     0     0
SMALL
GAST_HUCK


@<TRIPOS>ATOM
      1 C4         16.6480  -20.9310   11.5740 C.ar      1 I2E         0.1160
      2 C5         15.5630  -21.3390   10.8010 C.ar      1 I2E        -0.0478
      3 C6         15.2250  -22.6900   10.8630 C.ar      1 I2E        -0.0800
      4 C3         17.3750  -21.7610   12.3750 C.ar      1 I2E         0.1170
      5 C2         17.0740  -23.0890   12.4860 C.ar      1 I2E        -0.0396
      6 C1         15.9890  -23.5130   11.7100 C.ar      1 I2E        -0.0610
      7 C7         15.6230  -24.9350   11.8420 C.3       1 I2E        -0.0151
      8 C8         16.1860  -25.7920   10.7460 C.3       1 I2E         0.0083
      9 C9         17.1820  -26.6050   11.5630 C.2       1 I2E         0.0365
     10 O1         17.6730  -27.4950   10.8180 O.co2     1 I2E        -0.5689
     11 C20        18.3720  -19.8990   12.3310 C.3       1 I2E         0.1854
     12 O2         17.4050  -26.3020   12.7840 O.co2     1 I2E        -0.5689
     13 O4         17.1420  -19.6460   11.6670 O.3       1 I2E        -0.2956
     14 O3         18.3860  -21.1300   13.0370 O.3       1 I2E        -0.2927
     15 H1         15.0098  -20.6413   10.1828 H         1 I2E         0.0493
     16 H2         14.4039  -23.0914   10.2801 H         1 I2E         0.0436
     17 H3         17.6325  -23.7626   13.1259 H         1 I2E         0.0450
     18 H4         14.5263  -25.0175   11.8225 H         1 I2E         0.0422
     19 H5         16.0016  -25.3059   12.8059 H         1 I2E         0.0422
     20 H6         16.6827  -25.1930    9.9685 H         1 I2E         0.0450
     21 H7         15.4165  -26.4276   10.2835 H         1 I2E         0.0450
     22 H8         18.5566  -19.0841   13.0465 H         1 I2E         0.0970
     23 H9         19.1763  -19.9176   11.5809 H         1 I2E         0.0970
@<TRIPOS>BOND
     1    1    2 ar 
     2    1    4 ar 
     3    1   13 1  
     4    2    3 ar 
     5    3    6 ar 
     6    4    5 ar 
     7    4   14 1  
     8    5    6 ar 
     9    6    7 1  
    10    7    8 1  
    11    8    9 1  
    12    9   10 ar 
    13    9   12 ar 
    14   13   11 1  
    15   11   14 1  
    16    2   15 1  
    17    3   16 1  
    18    5   17 1  
    19    7   18 1  
    20    7   19 1  
    21    8   20 1  
    22    8   21 1  
    23   11   22 1  
    24   11   23 1  
@<TRIPOS>SUBSTRUCTURE
     1 I2E         1

