4ahr_ligand
  -I-interpret- 

 24 25  0  0  0  0  0  0  0  0999 V2000
   16.6480  -20.9310   11.5740 C   0  0  0  0  0
   15.5630  -21.3390   10.8010 C   0  0  0  0  0
   15.2250  -22.6900   10.8630 C   0  0  0  0  0
   17.3750  -21.7610   12.3750 C   0  0  0  0  0
   17.0740  -23.0890   12.4860 C   0  0  0  0  0
   15.9890  -23.5130   11.7100 C   0  0  0  0  0
   15.6230  -24.9350   11.8420 C   0  0  0  0  0
   16.1860  -25.7920   10.7460 C   0  0  0  0  0
   17.1820  -26.6050   11.5630 C   0  0  0  0  0
   17.6730  -27.4950   10.8180 O   0  0  0  0  0
   18.3720  -19.8990   12.3310 C   0  0  0  0  0
   17.4050  -26.3020   12.7840 O   0  0  0  0  0
   17.1420  -19.6460   11.6670 O   0  0  0  0  0
   18.3860  -21.1300   13.0370 O   0  0  0  0  0
   15.0067  -20.6374   10.1793 H   0  0  0  0  0
   14.3994  -23.0936   10.2769 H   0  0  0  0  0
   17.6356  -23.7663   13.1294 H   0  0  0  0  0
   14.5364  -25.0035   11.7909 H   0  0  0  0  0
   16.0302  -25.2955   12.7866 H   0  0  0  0  0
   16.6188  -25.2422    9.9103 H   0  0  0  0  0
   15.4494  -26.3825   10.2012 H   0  0  0  0  0
   18.5244  -19.1008   13.0575 H   0  0  0  0  0
   19.1527  -19.9458   11.5717 H   0  0  0  0  0
   16.8481  -25.5616   13.0357 H   0  0  0  0  0
  1  2  4  0  0  0
  1  4  4  0  0  0
  1 13  1  0  0  0
  2  3  4  0  0  0
  3  6  4  0  0  0
  4  5  4  0  0  0
  4 14  1  0  0  0
  5  6  4  0  0  0
  6  7  1  0  0  0
  7  8  1  0  0  0
  8  9  1  0  0  0
  9 10  2  0  0  0
  9 12  1  0  0  0
 13 11  1  0  0  0
 11 14  1  0  0  0
  2 15  1  0  0  0
  3 16  1  0  0  0
  5 17  1  0  0  0
  7 18  1  0  0  0
  7 19  1  0  0  0
  8 20  1  0  0  0
  8 21  1  0  0  0
 11 22  1  0  0  0
 11 23  1  0  0  0
 12 24  1  0  0  0
M  END
$$$$
