4arb_ligand
  -I-interpret- 

 52 53  0  0  0  0  0  0  0  0999 V2000
   30.5770   21.0240   11.1770 O   0  0  0  0  0
   30.9890   22.1370   10.9710 C   0  0  0  0  0
   31.9960   22.3470    9.8600 C   0  0  0  0  0
   33.0620   23.2840    9.9760 C   0  0  0  0  0
   33.2060   24.0650   11.1010 O   0  0  0  0  0
   34.2160   25.0170   11.1320 C   0  0  0  0  0
   34.0100   23.4510    8.9120 C   0  0  0  0  0
   33.9260   22.6920    7.7600 C   0  0  0  0  0
   34.9890   22.9920    6.7270 N   0  0  0  0  0
   36.0950   23.8850    7.0850 C   0  0  0  0  0
   34.9400   22.4440    5.3500 C   0  0  0  0  0
   32.8290   21.7270    7.6360 C   0  0  0  0  0
   32.6130   20.8680    6.5040 N   0  0  0  0  0
   31.5700   21.0300    5.7330 O   0  0  0  0  0
   33.4130   19.9520    6.2590 O   0  0  0  0  0
   31.9020   21.5700    8.6930 C   0  0  0  0  0
   30.5460   23.2250   11.8110 N   0  0  0  0  0
   29.5990   23.0420   12.9140 C   0  0  0  0  0
   27.7360   20.9420   14.2460 C   0  0  0  0  0
   27.4820   22.3800   13.9920 C   0  0  0  0  0
   28.1470   22.6350   12.6880 C   0  0  0  0  0
   27.9420   21.4060   11.9370 N   0  3  0  0  0
   27.1640   21.2270   10.7240 C   0  0  0  0  0
   27.8420   20.3280   12.8940 C   0  0  0  0  0
   27.6230   21.9940    9.4770 C   0  0  0  0  0
   35.1813   24.5248   11.0134 H   0  0  0  0  0
   34.0676   25.7289   10.3200 H   0  0  0  0  0
   34.1894   25.5422   12.0868 H   0  0  0  0  0
   34.8077   24.1868    9.0137 H   0  0  0  0  0
   35.6971   24.8616    7.3608 H   0  0  0  0  0
   36.6427   23.4632    7.9277 H   0  0  0  0  0
   36.7647   23.9919    6.2317 H   0  0  0  0  0
   34.9498   21.3549    5.3932 H   0  0  0  0  0
   34.0275   22.7812    4.8584 H   0  0  0  0  0
   35.8069   22.7945    4.7898 H   0  0  0  0  0
   31.1025   20.8349    8.6007 H   0  0  0  0  0
   30.9079   24.1610   11.6286 H   0  0  0  0  0
   29.5171   24.0401   13.3443 H   0  0  0  0  0
   30.0144   22.1987   13.4658 H   0  0  0  0  0
   26.9397   20.4880   14.8358 H   0  0  0  0  0
   28.6415   20.7881   14.8329 H   0  0  0  0  0
   27.8716   23.0160   14.7869 H   0  0  0  0  0
   26.4178   22.6144   13.9670 H   0  0  0  0  0
   27.7410   23.4715   12.1192 H   0  0  0  0  0
   28.7614   21.4493   11.3310 H   0  0  0  0  0
   26.1674   21.6042   10.9533 H   0  0  0  0  0
   27.2505   20.1705   10.4701 H   0  0  0  0  0
   26.9681   19.7111   12.6848 H   0  0  0  0  0
   28.7181   19.6822   12.8351 H   0  0  0  0  0
   27.6017   23.0643    9.6820 H   0  0  0  0  0
   28.6383   21.6922    9.2196 H   0  0  0  0  0
   26.9540   21.7684    8.6465 H   0  0  0  0  0
  2  1  2  0  0  0
  2  3  1  0  0  0
 17  2  1  0  0  0
  3  4  4  0  0  0
  3 16  4  0  0  0
  4  5  1  0  0  0
  4  7  4  0  0  0
  5  6  1  0  0  0
  7  8  4  0  0  0
  8  9  1  0  0  0
 12  8  4  0  0  0
  9 10  1  0  0  0
  9 11  1  0  0  0
 12 13  1  0  0  0
 16 12  4  0  0  0
 13 14  2  0  0  0
 13 15  2  0  0  0
 18 17  1  0  0  0
 21 18  1  0  0  0
 20 19  1  0  0  0
 19 24  1  0  0  0
 20 21  1  0  0  0
 21 22  1  0  0  0
 22 23  1  0  0  0
 22 24  1  0  0  0
 23 25  1  0  0  0
  6 26  1  0  0  0
  6 27  1  0  0  0
  6 28  1  0  0  0
  7 29  1  0  0  0
 10 30  1  0  0  0
 10 31  1  0  0  0
 10 32  1  0  0  0
 11 33  1  0  0  0
 11 34  1  0  0  0
 11 35  1  0  0  0
 16 36  1  0  0  0
 17 37  1  0  0  0
 18 38  1  0  0  0
 18 39  1  0  0  0
 19 40  1  0  0  0
 19 41  1  0  0  0
 20 42  1  0  0  0
 20 43  1  0  0  0
 21 44  1  0  0  0
 22 45  1  0  0  0
 23 46  1  0  0  0
 23 47  1  0  0  0
 24 48  1  0  0  0
 24 49  1  0  0  0
 25 50  1  0  0  0
 25 51  1  0  0  0
 25 52  1  0  0  0
M  END
$$$$
