### 
### Created by X-TOOL on Mon Sep 10 21:13:09 2018
### 

@<TRIPOS>MOLECULE
4arb_ligand
   52    53     1     0     0
SMALL
GAST_HUCK


@<TRIPOS>ATOM
      1 O16        30.5770   21.0240   11.1770 O.2       1 C57        -0.3048
      2 C15        30.9890   22.1370   10.9710 C.2       1 C57         0.3244
      3 C2         31.9960   22.3470    9.8600 C.ar      1 C57         0.2504
      4 C3         33.0620   23.2840    9.9760 C.ar      1 C57         0.2662
      5 O13        33.2060   24.0650   11.1010 O.3       1 C57        -0.2426
      6 C14        34.2160   25.0170   11.1320 C.3       1 C57         0.0871
      7 C4         34.0100   23.4510    8.9120 C.ar      1 C57         0.1362
      8 C5         33.9260   22.6920    7.7600 C.ar      1 C57         0.2676
      9 N10        34.9890   22.9920    6.7270 N.pl3     1 C57        -0.2089
     10 C12        36.0950   23.8850    7.0850 C.3       1 C57         0.0661
     11 C11        34.9400   22.4440    5.3500 C.3       1 C57         0.0661
     12 C6         32.8290   21.7270    7.6360 C.ar      1 C57         0.2838
     13 N7         32.6130   20.8680    6.5040 N.2       1 C57        -0.1112
     14 O9         31.5700   21.0300    5.7330 O.2       1 C57        -0.4421
     15 O8         33.4130   19.9520    6.2590 O.2       1 C57        -0.4421
     16 C1         31.9020   21.5700    8.6930 C.ar      1 C57         0.1506
     17 N17        30.5460   23.2250   11.8110 N.am      1 C57        -0.2603
     18 C18        29.5990   23.0420   12.9140 C.3       1 C57         0.0749
     19 C07        27.7360   20.9420   14.2460 C.3       1 C57        -0.0074
     20 C06        27.4820   22.3800   13.9920 C.3       1 C57        -0.0030
     21 C05        28.1470   22.6350   12.6880 C.3       1 C57        -0.0002
     22 N09        27.9420   21.4060   11.9370 N.4       1 C57         0.2386
     23 C10        27.1640   21.2270   10.7240 C.3       1 C57        -0.0345
     24 C08        27.8420   20.3280   12.8940 C.3       1 C57        -0.0314
     25 C13        27.6230   21.9940    9.4770 C.3       1 C57        -0.0245
     26 H1         34.1902   25.5477   12.0952 H         1 C57         0.0640
     27 H2         34.0673   25.7361   10.3130 H         1 C57         0.0640
     28 H3         35.1908   24.5215   11.0125 H         1 C57         0.0640
     29 H4         34.8033   24.1828    9.0131 H         1 C57         0.0810
     30 H5         36.7717   23.9937    6.2246 H         1 C57         0.0637
     31 H6         36.6486   23.4604    7.9354 H         1 C57         0.0637
     32 H7         35.6948   24.8710    7.3635 H         1 C57         0.0637
     33 H8         34.0563   21.7977    5.2439 H         1 C57         0.0637
     34 H9         35.8495   21.8562    5.1567 H         1 C57         0.0637
     35 H10        34.8778   23.2715    4.6280 H         1 C57         0.0637
     36 H11        31.1069   20.8390    8.6012 H         1 C57         0.1161
     37 H12        30.9008   24.1427   11.6322 H         1 C57         0.1863
     38 H13        29.5672   24.0011   13.4517 H         1 C57         0.0575
     39 H14        30.0346   22.2704   13.5658 H         1 C57         0.0575
     40 H15        26.9037   20.4955   14.8098 H         1 C57         0.0319
     41 H16        28.6727   20.8074   14.8068 H         1 C57         0.0319
     42 H17        27.9237   23.0015   14.7848 H         1 C57         0.0322
     43 H18        26.4026   22.5813   13.9268 H         1 C57         0.0322
     44 H19        27.6448   23.4608   12.1628 H         1 C57         0.0871
     45 H20        28.8638   21.2762   11.5504 H         1 C57         0.2037
     46 H21        26.1323   21.5393   10.9434 H         1 C57         0.0812
     47 H22        27.1780   20.1552   10.4770 H         1 C57         0.0812
     48 H23        26.9483   19.7216   12.6852 H         1 C57         0.0814
     49 H24        28.7378   19.6920   12.8390 H         1 C57         0.0814
     50 H25        26.9486   21.7672    8.6381 H         1 C57         0.0281
     51 H26        28.6476   21.6903    9.2162 H         1 C57         0.0281
     52 H27        27.6019   23.0744    9.6826 H         1 C57         0.0281
@<TRIPOS>BOND
     1    2    1 2  
     2    2    3 1  
     3   17    2 am 
     4    3    4 ar 
     5    3   16 ar 
     6    4    5 1  
     7    4    7 ar 
     8    5    6 1  
     9    7    8 ar 
    10    8    9 1  
    11   12    8 ar 
    12    9   10 1  
    13    9   11 1  
    14   12   13 1  
    15   16   12 ar 
    16   13   14 2  
    17   13   15 2  
    18   18   17 1  
    19   21   18 1  
    20   20   19 1  
    21   19   24 1  
    22   20   21 1  
    23   21   22 1  
    24   22   23 1  
    25   22   24 1  
    26   23   25 1  
    27    6   26 1  
    28    6   27 1  
    29    6   28 1  
    30    7   29 1  
    31   10   30 1  
    32   10   31 1  
    33   10   32 1  
    34   11   33 1  
    35   11   34 1  
    36   11   35 1  
    37   16   36 1  
    38   17   37 1  
    39   18   38 1  
    40   18   39 1  
    41   19   40 1  
    42   19   41 1  
    43   20   42 1  
    44   20   43 1  
    45   21   44 1  
    46   22   45 1  
    47   23   46 1  
    48   23   47 1  
    49   24   48 1  
    50   24   49 1  
    51   25   50 1  
    52   25   51 1  
    53   25   52 1  
@<TRIPOS>SUBSTRUCTURE
     1 C57         1

