### 
### Created by X-TOOL on Mon Sep 10 21:13:23 2018
### 

@<TRIPOS>MOLECULE
4yth_ligand
   44    46     1     0     0
SMALL
GAST_HUCK


@<TRIPOS>ATOM
      1 F3         12.2630   17.4240    4.4860 F         1 467        -0.1818
      2 C7         12.2150   16.1730    3.9750 C.ar      1 467         0.1924
      3 C8         11.2470   15.8040    3.0160 C.ar      1 467         0.0375
      4 N2         11.1950   14.5210    2.5010 N.ar      1 467        -0.2959
      5 C9         12.1400   13.5850    2.9720 C.ar      1 467         0.0819
      6 N3         13.1110   13.8730    3.8840 N.ar      1 467        -0.2657
      7 C6         13.1670   15.1590    4.4000 C.ar      1 467         0.1531
      8 N1         14.1420   15.4820    5.3580 N.pl3     1 467        -0.2921
      9 C1         15.2450   14.6020    5.8880 C.3       1 467         0.1255
     10 C2         16.1970   15.4930    6.6930 C.3       1 467        -0.0321
     11 C3         16.0330   14.0030    4.6880 C.2       1 467         0.2243
     12 N          16.2360   14.8610    3.6290 N.am      1 467        -0.2754
     13 C4         16.9270   14.4800    2.4150 C.3       1 467         0.1261
     14 C5         16.0000   14.5380    1.2400 C.3       1 467         0.4096
     15 F2         15.5400   15.7520    1.0170 F         1 467        -0.1685
     16 F1         14.9160   13.7750    1.4070 F         1 467        -0.1685
     17 F          16.5990   14.1450    0.1310 F         1 467        -0.1685
     18 O          16.4160   12.8420    4.6400 O.2       1 467        -0.3420
     19 C          14.6540   13.5290    6.8080 C.3       1 467        -0.0321
     20 C10        12.0530   12.2090    2.5170 C.2       1 467         0.0294
     21 C13        12.9220   11.0910    2.8210 C.ar      1 467         0.0183
     22 C14        14.1520   10.8700    3.5450 C.ar      1 467        -0.0389
     23 C15        14.6810    9.5900    3.5290 C.ar      1 467         0.0521
     24 CL         16.1070    9.2480    4.3880 Cl        1 467        -0.0723
     25 C16        14.0550    8.4970    2.8380 C.ar      1 467         0.0096
     26 N5         12.8990    8.6670    2.1500 N.ar      1 467        -0.2831
     27 C12        12.3700    9.9510    2.1420 C.ar      1 467         0.1430
     28 N4         11.2300   10.3700    1.4210 N.pl3     1 467        -0.2533
     29 C11        11.0450   11.7360    1.6640 C.2       1 467         0.0550
     30 H1         10.5292   16.5416    2.6759 H         1 467         0.0844
     31 H2         14.0979   16.4355    5.7452 H         1 467         0.1820
     32 H3         17.0178   14.8819    7.0966 H         1 467         0.0242
     33 H4         15.6471   15.9620    7.5222 H         1 467         0.0242
     34 H5         16.6096   16.2746    6.0381 H         1 467         0.0242
     35 H6         15.8879   15.7956    3.7028 H         1 467         0.1861
     36 H7         17.3093   13.4543    2.5234 H         1 467         0.0611
     37 H8         17.7678   15.1688    2.2463 H         1 467         0.0611
     38 H9         15.4625   12.8896    7.1921 H         1 467         0.0242
     39 H10        13.9381   12.9147    6.2423 H         1 467         0.0242
     40 H11        14.1372   14.0122    7.6502 H         1 467         0.0242
     41 H12        14.6424   11.6750    4.0804 H         1 467         0.0680
     42 H13        14.5162    7.5164    2.8672 H         1 467         0.0760
     43 H14        10.6393    9.7755    0.8223 H         1 467         0.2371
     44 H15        10.2387   12.3412    1.2522 H         1 467         0.1115
@<TRIPOS>BOND
     1    1    2 1  
     2    2    3 ar 
     3    2    7 ar 
     4    3    4 ar 
     5    4    5 ar 
     6    5    6 ar 
     7    5   20 1  
     8    6    7 ar 
     9    7    8 1  
    10    8    9 1  
    11    9   10 1  
    12    9   11 1  
    13    9   19 1  
    14   11   12 am 
    15   11   18 2  
    16   12   13 1  
    17   13   14 1  
    18   14   15 1  
    19   14   16 1  
    20   14   17 1  
    21   20   21 1  
    22   20   29 2  
    23   21   22 ar 
    24   21   27 ar 
    25   22   23 ar 
    26   23   24 1  
    27   23   25 ar 
    28   25   26 ar 
    29   26   27 ar 
    30   27   28 1  
    31   28   29 1  
    32    3   30 1  
    33    8   31 1  
    34   10   32 1  
    35   10   33 1  
    36   10   34 1  
    37   12   35 1  
    38   13   36 1  
    39   13   37 1  
    40   19   38 1  
    41   19   39 1  
    42   19   40 1  
    43   22   41 1  
    44   25   42 1  
    45   28   43 1  
    46   29   44 1  
@<TRIPOS>SUBSTRUCTURE
     1 467         1

