4yth_ligand
  -I-interpret- 

 43 45  0  0  0  0  0  0  0  0999 V2000
   12.2630   17.4240    4.4860 F   0  0  0  0  0
   12.2150   16.1730    3.9750 C   0  0  0  0  0
   11.2470   15.8040    3.0160 C   0  0  0  0  0
   11.1950   14.5210    2.5010 N   0  0  0  0  0
   12.1400   13.5850    2.9720 C   0  0  0  0  0
   13.1110   13.8730    3.8840 N   0  0  0  0  0
   13.1670   15.1590    4.4000 C   0  0  0  0  0
   14.1420   15.4820    5.3580 N   0  0  0  0  0
   15.2450   14.6020    5.8880 C   0  0  0  0  0
   16.1970   15.4930    6.6930 C   0  0  0  0  0
   16.0330   14.0030    4.6880 C   0  0  0  0  0
   16.2360   14.8610    3.6290 N   0  0  0  0  0
   16.9270   14.4800    2.4150 C   0  0  0  0  0
   16.0000   14.5380    1.2400 C   0  0  0  0  0
   15.5400   15.7520    1.0170 F   0  0  0  0  0
   14.9160   13.7750    1.4070 F   0  0  0  0  0
   16.5990   14.1450    0.1310 F   0  0  0  0  0
   16.4160   12.8420    4.6400 O   0  0  0  0  0
   14.6540   13.5290    6.8080 C   0  0  0  0  0
   12.0530   12.2090    2.5170 C   0  0  0  0  0
   12.9220   11.0910    2.8210 C   0  0  0  0  0
   14.1520   10.8700    3.5450 C   0  0  0  0  0
   14.6810    9.5900    3.5290 C   0  0  0  0  0
   16.1070    9.2480    4.3880 Cl  0  0  0  0  0
   14.0550    8.4970    2.8380 C   0  0  0  0  0
   12.8990    8.6670    2.1500 N   0  0  0  0  0
   12.3700    9.9510    2.1420 C   0  0  0  0  0
   11.2300   10.3700    1.4210 N   0  0  0  0  0
   11.0450   11.7360    1.6640 C   0  0  0  0  0
   10.5252   16.5457    2.6740 H   0  0  0  0  0
   14.0984   16.4262    5.7414 H   0  0  0  0  0
   16.6051   16.2670    6.0430 H   0  0  0  0  0
   15.6509   15.9572    7.5142 H   0  0  0  0  0
   17.0098   14.8864    7.0924 H   0  0  0  0  0
   15.8809   15.8142    3.7043 H   0  0  0  0  0
   17.2956   13.4600    2.5239 H   0  0  0  0  0
   17.7532   15.1710    2.2473 H   0  0  0  0  0
   14.1422   14.0091    7.6421 H   0  0  0  0  0
   13.9448   12.9211    6.2463 H   0  0  0  0  0
   15.4560   12.8961    7.1879 H   0  0  0  0  0
   14.6451   11.6794    4.0833 H   0  0  0  0  0
   14.5188    7.5110    2.8674 H   0  0  0  0  0
   10.2380   12.3418    1.2518 H   0  0  0  0  0
  1  2  1  0  0  0
  2  3  4  0  0  0
  2  7  4  0  0  0
  3  4  4  0  0  0
  4  5  4  0  0  0
  5  6  4  0  0  0
  5 20  1  0  0  0
  6  7  4  0  0  0
  7  8  1  0  0  0
  8  9  1  0  0  0
  9 10  1  0  0  0
  9 11  1  0  0  0
  9 19  1  0  0  0
 11 12  1  0  0  0
 11 18  2  0  0  0
 12 13  1  0  0  0
 13 14  1  0  0  0
 14 15  1  0  0  0
 14 16  1  0  0  0
 14 17  1  0  0  0
 20 21  4  0  0  0
 20 29  4  0  0  0
 21 22  4  0  0  0
 21 27  4  0  0  0
 22 23  4  0  0  0
 23 24  1  0  0  0
 23 25  4  0  0  0
 25 26  4  0  0  0
 26 27  4  0  0  0
 27 28  4  0  0  0
 28 29  4  0  0  0
  3 30  1  0  0  0
  8 31  1  0  0  0
 10 32  1  0  0  0
 10 33  1  0  0  0
 10 34  1  0  0  0
 12 35  1  0  0  0
 13 36  1  0  0  0
 13 37  1  0  0  0
 19 38  1  0  0  0
 19 39  1  0  0  0
 19 40  1  0  0  0
 22 41  1  0  0  0
 25 42  1  0  0  0
 29 43  1  0  0  0
M  END
$$$$
