### 
### Created by X-TOOL on Mon Sep 10 21:13:26 2018
### 

@<TRIPOS>MOLECULE
5f1v_ligand
   54    53     1     0     0
SMALL
GAST_HUCK


@<TRIPOS>ATOM
      1 N01        30.8200  -14.3210  -12.2290 N.4       1 3VN         0.2229
      2 C02        31.1320  -13.1930  -13.0620 C.3       1 3VN         0.0325
      3 C03        29.8770  -12.5030  -13.4670 C.2       1 3VN         0.0960
      4 O04        29.9290  -11.3370  -13.9360 O.co2     1 3VN        -0.5422
      5 O05        28.7670  -13.0800  -13.3310 O.co2     1 3VN        -0.5422
      6 C06        31.9030  -13.6410  -14.2620 C.3       1 3VN        -0.0015
      7 C07        31.1730  -14.3240  -15.3690 C.3       1 3VN        -0.0433
      8 C08        31.8500  -15.4580  -16.0650 C.3       1 3VN        -0.0125
      9 C09        31.0700  -16.1640  -17.1230 C.3       1 3VN        -0.0354
     10 N10        31.4310  -17.5180  -17.4510 N.4       1 3VN         0.2185
     11 C11        31.9460  -12.2160  -12.2850 C.3       1 3VN         0.0032
     12 C12        33.2880  -12.6170  -11.7690 C.3       1 3VN         0.0032
     13 C13        34.0650  -11.5700  -11.0460 C.3       1 3VN         0.0325
     14 N14        33.4710  -11.3310   -9.7610 N.4       1 3VN         0.2229
     15 C15        34.0280  -10.3180  -11.8530 C.3       1 3VN        -0.0015
     16 C16        34.6230   -9.0650  -11.2990 C.3       1 3VN        -0.0433
     17 C17        34.5560   -7.8520  -12.1690 C.3       1 3VN        -0.0125
     18 C18        33.5260   -6.8220  -11.8390 C.3       1 3VN        -0.0354
     19 N19        33.2750   -5.7770  -12.7960 N.4       1 3VN         0.2185
     20 C20        35.4790  -12.0050  -10.8820 C.2       1 3VN         0.0960
     21 O21        36.2310  -12.0730  -11.8910 O.co2     1 3VN        -0.5422
     22 O22        35.9140  -12.3020   -9.7340 O.co2     1 3VN        -0.5422
     23 H1         31.6730  -14.7845  -11.9577 H         1 3VN         0.1999
     24 H2         30.2358  -14.9644  -12.7396 H         1 3VN         0.1999
     25 H3         30.3323  -14.0056  -11.4051 H         1 3VN         0.1999
     26 H4         32.6779  -14.3367  -13.9077 H         1 3VN         0.0316
     27 H5         32.3806  -12.7481  -14.6918 H         1 3VN         0.0316
     28 H6         30.9472  -13.5623  -16.1298 H         1 3VN         0.0268
     29 H7         30.2335  -14.7129  -14.9493 H         1 3VN         0.0268
     30 H8         32.1223  -16.2014  -15.3014 H         1 3VN         0.0317
     31 H9         32.7631  -15.0625  -16.5338 H         1 3VN         0.0317
     32 H10        31.1613  -15.5708  -18.0448 H         1 3VN         0.0813
     33 H11        30.0192  -16.1773  -16.7981 H         1 3VN         0.0813
     34 H12        30.8216  -17.8618  -18.1766 H         1 3VN         0.1994
     35 H13        31.3388  -18.0982  -16.6319 H         1 3VN         0.1994
     36 H14        32.3854  -17.5424  -17.7744 H         1 3VN         0.1994
     37 H15        31.3439  -11.9212  -11.4129 H         1 3VN         0.0317
     38 H16        32.1021  -11.3424  -12.9350 H         1 3VN         0.0317
     39 H17        33.8910  -12.9466  -12.6279 H         1 3VN         0.0317
     40 H18        33.1417  -13.4605  -11.0783 H         1 3VN         0.0317
     41 H19        33.9977  -10.6229   -9.2739 H         1 3VN         0.1999
     42 H20        33.4778  -12.1839   -9.2238 H         1 3VN         0.1999
     43 H21        32.5206  -11.0183   -9.8831 H         1 3VN         0.1999
     44 H22        32.9695  -10.1037  -12.0618 H         1 3VN         0.0316
     45 H23        34.5522  -10.5305  -12.7964 H         1 3VN         0.0316
     46 H24        35.6835   -9.2648  -11.0858 H         1 3VN         0.0268
     47 H25        34.0979   -8.8324  -10.3609 H         1 3VN         0.0268
     48 H26        34.3625   -8.1939  -13.1964 H         1 3VN         0.0317
     49 H27        35.5391   -7.3605  -12.1251 H         1 3VN         0.0317
     50 H28        33.8384   -6.3374  -10.9022 H         1 3VN         0.0813
     51 H29        32.5754   -7.3517  -11.6785 H         1 3VN         0.0813
     52 H30        32.5613   -5.1603  -12.4406 H         1 3VN         0.1994
     53 H31        32.9652   -6.1841  -13.6645 H         1 3VN         0.1994
     54 H32        34.1226   -5.2546  -12.9532 H         1 3VN         0.1994
@<TRIPOS>BOND
     1    1    2 1  
     2    2    3 1  
     3    2    6 1  
     4    2   11 1  
     5    3    4 ar 
     6    3    5 ar 
     7    6    7 1  
     8    7    8 1  
     9    8    9 1  
    10    9   10 1  
    11   11   12 1  
    12   12   13 1  
    13   13   14 1  
    14   13   15 1  
    15   13   20 1  
    16   15   16 1  
    17   16   17 1  
    18   17   18 1  
    19   18   19 1  
    20   20   21 ar 
    21   20   22 ar 
    22    1   23 1  
    23    1   24 1  
    24    1   25 1  
    25    6   26 1  
    26    6   27 1  
    27    7   28 1  
    28    7   29 1  
    29    8   30 1  
    30    8   31 1  
    31    9   32 1  
    32    9   33 1  
    33   10   34 1  
    34   10   35 1  
    35   10   36 1  
    36   11   37 1  
    37   11   38 1  
    38   12   39 1  
    39   12   40 1  
    40   14   41 1  
    41   14   42 1  
    42   14   43 1  
    43   15   44 1  
    44   15   45 1  
    45   16   46 1  
    46   16   47 1  
    47   17   48 1  
    48   17   49 1  
    49   18   50 1  
    50   18   51 1  
    51   19   52 1  
    52   19   53 1  
    53   19   54 1  
@<TRIPOS>SUBSTRUCTURE
     1 3VN         1

