5f1v_ligand
  -I-interpret- 

 56 55  0  0  0  0  0  0  0  0999 V2000
   30.8200  -14.3210  -12.2290 N   0  3  0  0  0
   31.1320  -13.1930  -13.0620 C   0  0  0  0  0
   29.8770  -12.5030  -13.4670 C   0  0  0  0  0
   29.9290  -11.3370  -13.9360 O   0  0  0  0  0
   28.7670  -13.0800  -13.3310 O   0  0  0  0  0
   31.9030  -13.6410  -14.2620 C   0  0  0  0  0
   31.1730  -14.3240  -15.3690 C   0  0  0  0  0
   31.8500  -15.4580  -16.0650 C   0  0  0  0  0
   31.0700  -16.1640  -17.1230 C   0  0  0  0  0
   31.4310  -17.5180  -17.4510 N   0  3  0  0  0
   31.9460  -12.2160  -12.2850 C   0  0  0  0  0
   33.2880  -12.6170  -11.7690 C   0  0  0  0  0
   34.0650  -11.5700  -11.0460 C   0  0  0  0  0
   33.4710  -11.3310   -9.7610 N   0  3  0  0  0
   34.0280  -10.3180  -11.8530 C   0  0  0  0  0
   34.6230   -9.0650  -11.2990 C   0  0  0  0  0
   34.5560   -7.8520  -12.1690 C   0  0  0  0  0
   33.5260   -6.8220  -11.8390 C   0  0  0  0  0
   33.2750   -5.7770  -12.7960 N   0  3  0  0  0
   35.4790  -12.0050  -10.8820 C   0  0  0  0  0
   36.2310  -12.0730  -11.8910 O   0  0  0  0  0
   35.9140  -12.3020   -9.7340 O   0  0  0  0  0
   30.2628  -14.9904  -12.7599 H   0  0  0  0  0
   31.6854  -14.7650  -11.9219 H   0  0  0  0  0
   30.2910  -14.0057  -11.4159 H   0  0  0  0  0
   28.9058  -13.9557  -12.9630 H   0  0  0  0  0
   32.6060  -14.3841  -13.8856 H   0  0  0  0  0
   32.2956  -12.7254  -14.7043 H   0  0  0  0  0
   31.0306  -13.5606  -16.1339 H   0  0  0  0  0
   30.2876  -14.7585  -14.9049 H   0  0  0  0  0
   32.0507  -16.2032  -15.2952 H   0  0  0  0  0
   32.7135  -15.0250  -16.5700 H   0  0  0  0  0
   31.2437  -15.5930  -18.0351 H   0  0  0  0  0
   30.0531  -16.2253  -16.7354 H   0  0  0  0  0
   30.8137  -17.8648  -18.1852 H   0  0  0  0  0
   32.3969  -17.5414  -17.7780 H   0  0  0  0  0
   31.3374  -18.1040  -16.6214 H   0  0  0  0  0
   31.3559  -12.0160  -11.3907 H   0  0  0  0  0
   32.1515  -11.4086  -12.9878 H   0  0  0  0  0
   33.8808  -12.8809  -12.6448 H   0  0  0  0  0
   33.1071  -13.4115  -11.0450 H   0  0  0  0  0
   34.0047  -10.6144   -9.2690 H   0  0  0  0  0
   32.5094  -11.0147   -9.8858 H   0  0  0  0  0
   33.4784  -12.1947   -9.2184 H   0  0  0  0  0
   32.9673  -10.0934  -11.9650 H   0  0  0  0  0
   34.6274  -10.5411  -12.7356 H   0  0  0  0  0
   35.6830   -9.2734  -11.1538 H   0  0  0  0  0
   34.0461   -8.8270  -10.4053 H   0  0  0  0  0
   34.2970   -8.2178  -13.1626 H   0  0  0  0  0
   35.5179   -7.3530  -12.0509 H   0  0  0  0  0
   33.9032   -6.3135  -10.9517 H   0  0  0  0  0
   32.5872   -7.3703  -11.7606 H   0  0  0  0  0
   32.5527   -5.1536  -12.4353 H   0  0  0  0  0
   34.1333   -5.2492  -12.9542 H   0  0  0  0  0
   32.9617   -6.1901  -13.6744 H   0  0  0  0  0
   35.2112  -12.1941   -9.0890 H   0  0  0  0  0
  1  2  1  0  0  0
  2  3  1  0  0  0
  2  6  1  0  0  0
  2 11  1  0  0  0
  3  4  2  0  0  0
  3  5  1  0  0  0
  6  7  1  0  0  0
  7  8  1  0  0  0
  8  9  1  0  0  0
  9 10  1  0  0  0
 11 12  1  0  0  0
 12 13  1  0  0  0
 13 14  1  0  0  0
 13 15  1  0  0  0
 13 20  1  0  0  0
 15 16  1  0  0  0
 16 17  1  0  0  0
 17 18  1  0  0  0
 18 19  1  0  0  0
 20 21  2  0  0  0
 20 22  1  0  0  0
  1 23  1  0  0  0
  1 24  1  0  0  0
  1 25  1  0  0  0
  5 26  1  0  0  0
  6 27  1  0  0  0
  6 28  1  0  0  0
  7 29  1  0  0  0
  7 30  1  0  0  0
  8 31  1  0  0  0
  8 32  1  0  0  0
  9 33  1  0  0  0
  9 34  1  0  0  0
 10 35  1  0  0  0
 10 36  1  0  0  0
 10 37  1  0  0  0
 11 38  1  0  0  0
 11 39  1  0  0  0
 12 40  1  0  0  0
 12 41  1  0  0  0
 14 42  1  0  0  0
 14 43  1  0  0  0
 14 44  1  0  0  0
 15 45  1  0  0  0
 15 46  1  0  0  0
 16 47  1  0  0  0
 16 48  1  0  0  0
 17 49  1  0  0  0
 17 50  1  0  0  0
 18 51  1  0  0  0
 18 52  1  0  0  0
 19 53  1  0  0  0
 19 54  1  0  0  0
 19 55  1  0  0  0
 22 56  1  0  0  0
M  END
$$$$
