6qqq_ligand
  -I-interpret- 

 37 39  0  0  0  0  0  0  0  0999 V2000
  -18.4380  -17.9460   12.6080 C   0  0  0  0  0
  -19.0220  -15.8290   12.7850 N   0  0  0  0  0
  -20.1440  -16.5560   12.7750 C   0  0  0  0  0
  -22.5470  -21.5800   10.6590 C   0  0  0  0  0
  -21.9090  -23.3290    9.0160 C   0  0  0  0  0
  -20.4900  -25.5330    8.2020 C   0  0  0  0  0
  -20.8070  -25.4150    9.5590 C   0  0  0  0  0
  -21.5330  -24.2870    9.9880 C   0  0  0  0  0
  -26.2690  -18.9360    8.5230 C   0  0  0  0  0
  -25.1360  -19.7040    8.0090 O   0  0  0  0  0
  -24.3040  -20.2760    8.9320 C   0  0  0  0  0
  -24.1560  -19.7840   10.1590 C   0  0  0  0  0
  -23.2630  -20.4130   11.0640 C   0  0  0  0  0
  -23.0510  -19.9090   12.4460 C   0  0  0  0  0
  -22.1460  -18.8030   12.4630 O   0  0  0  0  0
  -20.7370  -19.0820   12.6170 C   0  0  0  0  0
  -19.7710  -17.8970   12.6610 C   0  0  0  0  0
  -18.0070  -16.6730   12.6700 N   0  0  0  0  0
  -20.2910  -20.2610   12.6840 O   0  0  0  0  0
  -22.7000  -22.0770    9.4290 C   0  0  0  0  0
  -21.5480  -23.5330    7.6860 C   0  0  0  0  0
  -20.8580  -24.6140    7.3240 N   0  0  0  0  0
  -23.5580  -21.4540    8.5330 C   0  0  0  0  0
  -17.8206  -18.8409   12.5299 H   0  0  0  0  0
  -21.1621  -16.1727   12.8432 H   0  0  0  0  0
  -21.8701  -22.0692   11.3594 H   0  0  0  0  0
  -19.9272  -26.4015    7.8599 H   0  0  0  0  0
  -20.4983  -26.1809   10.2705 H   0  0  0  0  0
  -21.7975  -24.1556   11.0372 H   0  0  0  0  0
  -26.9025  -19.5856    9.1270 H   0  0  0  0  0
  -25.9006  -18.1135    9.1361 H   0  0  0  0  0
  -26.8456  -18.5384    7.6878 H   0  0  0  0  0
  -24.7179  -18.9023   10.4673 H   0  0  0  0  0
  -22.6269  -20.7133   13.0471 H   0  0  0  0  0
  -24.0098  -19.5786   12.8455 H   0  0  0  0  0
  -21.8335  -22.7993    6.9322 H   0  0  0  0  0
  -23.6716  -21.8521    7.5247 H   0  0  0  0  0
 17  1  4  0  0  0
  1 18  4  0  0  0
  3  2  4  0  0  0
  2 18  4  0  0  0
 17  3  4  0  0  0
 13  4  4  0  0  0
  4 20  4  0  0  0
  5  8  4  0  0  0
 20  5  1  0  0  0
  5 21  4  0  0  0
  7  6  4  0  0  0
  6 22  4  0  0  0
  8  7  4  0  0  0
 10  9  1  0  0  0
 11 10  1  0  0  0
 12 11  4  0  0  0
 11 23  4  0  0  0
 13 12  4  0  0  0
 14 13  1  0  0  0
 15 14  1  0  0  0
 16 15  1  0  0  0
 16 17  1  0  0  0
 16 19  2  0  0  0
 20 23  4  0  0  0
 21 22  4  0  0  0
  1 24  1  0  0  0
  3 25  1  0  0  0
  4 26  1  0  0  0
  6 27  1  0  0  0
  7 28  1  0  0  0
  8 29  1  0  0  0
  9 30  1  0  0  0
  9 31  1  0  0  0
  9 32  1  0  0  0
 12 33  1  0  0  0
 14 34  1  0  0  0
 14 35  1  0  0  0
 21 36  1  0  0  0
 23 37  1  0  0  0
M  END
$$$$
