### 
### Created by X-TOOL on Mon Aug  2 16:16:34 2021
### 

@<TRIPOS>MOLECULE
6qqq_ligand
   38    40     1     0     0
SMALL
GAST_HUCK


@<TRIPOS>ATOM
      1 C10       -18.4380  -17.9460   12.6080 C.2       1 JDE         0.0151
      2 N12       -19.0220  -15.8290   12.7850 N.pl3     1 JDE        -0.2128
      3 C13       -20.1440  -16.5560   12.7750 C.2       1 JDE         0.0740
      4 C15       -22.5470  -21.5800   10.6590 C.ar      1 JDE        -0.0596
      5 C17       -21.9090  -23.3290    9.0160 C.ar      1 JDE         0.0054
      6 C20       -20.4900  -25.5330    8.2020 C.ar      1 JDE         0.0109
      7 C21       -20.8070  -25.4150    9.5590 C.ar      1 JDE        -0.0338
      8 C22       -21.5330  -24.2870    9.9880 C.ar      1 JDE        -0.0352
      9 C01       -26.2690  -18.9360    8.5230 C.3       1 JDE         0.0592
     10 O02       -25.1360  -19.7040    8.0090 O.3       1 JDE        -0.3229
     11 C03       -24.3040  -20.2760    8.9320 C.ar      1 JDE         0.0856
     12 C04       -24.1560  -19.7840   10.1590 C.ar      1 JDE        -0.0286
     13 C05       -23.2630  -20.4130   11.0640 C.ar      1 JDE        -0.0203
     14 C06       -23.0510  -19.9090   12.4460 C.3       1 JDE         0.1070
     15 O07       -22.1460  -18.8030   12.4630 O.3       1 JDE        -0.2688
     16 C08       -20.7370  -19.0820   12.6170 C.2       1 JDE         0.2440
     17 C09       -19.7710  -17.8970   12.6610 C.2       1 JDE         0.0770
     18 N11       -18.0070  -16.6730   12.6700 N.2       1 JDE        -0.2141
     19 O14       -20.2910  -20.2610   12.6840 O.2       1 JDE        -0.3723
     20 C16       -22.7000  -22.0770    9.4290 C.ar      1 JDE        -0.0261
     21 C18       -21.5480  -23.5330    7.6860 C.ar      1 JDE         0.0185
     22 N19       -20.8580  -24.6140    7.3240 N.ar      1 JDE        -0.2962
     23 C23       -23.5580  -21.4540    8.5330 C.ar      1 JDE        -0.0310
     24 H1        -17.8211  -18.8400   12.5300 H         1 JDE         0.0692
     25 H2        -18.9585  -14.8042   12.8668 H         1 JDE         0.2617
     26 H3        -21.1612  -16.1731   12.8432 H         1 JDE         0.1095
     27 H4        -21.8738  -22.0665   11.3556 H         1 JDE         0.0479
     28 H5        -19.9302  -26.3967    7.8618 H         1 JDE         0.0820
     29 H6        -20.5000  -26.1767   10.2666 H         1 JDE         0.0709
     30 H7        -21.7960  -24.1563   11.0314 H         1 JDE         0.0741
     31 H8        -26.8517  -18.5342    7.6810 H         1 JDE         0.0577
     32 H9        -25.8985  -18.1055    9.1419 H         1 JDE         0.0577
     33 H10       -26.9092  -19.5905    9.1327 H         1 JDE         0.0577
     34 H11       -24.7148  -18.9072   10.4656 H         1 JDE         0.0490
     35 H12       -22.6372  -20.7199   13.0635 H         1 JDE         0.0774
     36 H13       -24.0171  -19.5876   12.8622 H         1 JDE         0.0774
     37 H14       -21.8319  -22.8033    6.9363 H         1 JDE         0.0832
     38 H15       -23.6710  -21.8499    7.5302 H         1 JDE         0.0497
@<TRIPOS>BOND
     1   17    1 1  
     2    1   18 2  
     3    3    2 1  
     4    2   18 1  
     5   17    3 2  
     6   13    4 ar 
     7    4   20 ar 
     8    5    8 ar 
     9   20    5 1  
    10    5   21 ar 
    11    7    6 ar 
    12    6   22 ar 
    13    8    7 ar 
    14   10    9 1  
    15   11   10 1  
    16   12   11 ar 
    17   11   23 ar 
    18   13   12 ar 
    19   14   13 1  
    20   15   14 1  
    21   16   15 1  
    22   16   17 1  
    23   16   19 2  
    24   20   23 ar 
    25   21   22 ar 
    26    1   24 1  
    27    2   25 1  
    28    3   26 1  
    29    4   27 1  
    30    6   28 1  
    31    7   29 1  
    32    8   30 1  
    33    9   31 1  
    34    9   32 1  
    35    9   33 1  
    36   12   34 1  
    37   14   35 1  
    38   14   36 1  
    39   21   37 1  
    40   23   38 1  
@<TRIPOS>SUBSTRUCTURE
     1 JDE         1

