6md0_ligand
  -I-interpret- 

 54 53  0  0  0  0  0  0  0  0999 V2000
   19.1990   18.9740   19.9720 C   0  0  0  0  0
   19.7650   18.7870   21.0760 O   0  0  0  0  0
   18.1490   18.3250   19.6910 O   0  0  0  0  0
   19.8060   19.9880   18.9980 C   0  0  0  0  0
   20.4690   19.3310   17.7880 C   0  0  0  0  0
   19.5030   18.4380   17.0050 C   0  0  0  0  0
   20.1530   17.1620   16.4640 C   0  0  0  0  0
   19.4690   16.6210   15.2040 C   0  0  0  0  0
   18.0330   16.1580   15.4660 C   0  0  0  0  0
   16.9690   17.0220   14.7760 C   0  0  0  0  0
   17.1940   17.1530   13.2640 C   0  0  0  0  0
   16.2100   16.8910   12.4250 C   0  0  0  0  0
   16.4060   17.0140   10.9130 C   0  0  0  0  0
   17.8500   16.7850   10.4670 C   0  0  0  0  0
   18.3310   17.9860    9.6660 C   0  0  0  0  0
   17.3870   19.1600    9.9480 C   0  0  0  0  0
   17.5080   20.3440    8.9860 C   0  0  0  0  0
   16.4610   21.4100    9.3170 C   0  0  0  0  0
   16.6350   22.6500    8.4450 C   0  0  0  0  0
   18.0850   22.8000    7.9890 C   0  0  0  0  0
   17.8406   18.5797   18.8183 H   0  0  0  0  0
   20.5733   20.5457   19.5349 H   0  0  0  0  0
   18.9978   20.6206   18.6309 H   0  0  0  0  0
   21.2866   18.7072   18.1493 H   0  0  0  0  0
   20.8121   20.1220   17.1211 H   0  0  0  0  0
   19.1466   19.0120   16.1497 H   0  0  0  0  0
   18.7088   18.1367   17.6881 H   0  0  0  0  0
   20.0720   16.3977   17.2369 H   0  0  0  0  0
   21.1834   17.4026   16.2021 H   0  0  0  0  0
   20.0404   15.7608   14.8553 H   0  0  0  0  0
   19.4332   17.4260   14.4699 H   0  0  0  0  0
   17.8603   16.2253   16.5401 H   0  0  0  0  0
   17.9394   15.1474   15.0685 H   0  0  0  0  0
   17.0207   18.0215   15.2079 H   0  0  0  0  0
   16.0017   16.5432   14.9282 H   0  0  0  0  0
   18.1671   17.4626   12.8828 H   0  0  0  0  0
   15.2408   16.5816   12.8161 H   0  0  0  0  0
   16.1313   18.0295   10.6278 H   0  0  0  0  0
   15.7906   16.2494   10.4388 H   0  0  0  0  0
   17.9006   15.8907    9.8460 H   0  0  0  0  0
   18.4845   16.6557   11.3438 H   0  0  0  0  0
   18.3289   17.7513    8.6016 H   0  0  0  0  0
   19.3490   18.2461    9.9561 H   0  0  0  0  0
   17.6442   19.5357   10.9384 H   0  0  0  0  0
   16.3723   18.7760    9.8434 H   0  0  0  0  0
   17.3459   19.9916    7.9674 H   0  0  0  0  0
   18.5020   20.7805    9.0837 H   0  0  0  0  0
   16.5808   21.7009   10.3606 H   0  0  0  0  0
   15.4712   20.9926    9.1320 H   0  0  0  0  0
   16.3593   23.5288    9.0280 H   0  0  0  0  0
   16.0003   22.5500    7.5645 H   0  0  0  0  0
   18.7313   22.8924    8.8618 H   0  0  0  0  0
   18.3755   21.9224    7.4115 H   0  0  0  0  0
   18.1793   23.6918    7.3694 H   0  0  0  0  0
  1  2  2  0  0  0
  1  3  1  0  0  0
  1  4  1  0  0  0
  4  5  1  0  0  0
  5  6  1  0  0  0
  6  7  1  0  0  0
  7  8  1  0  0  0
  8  9  1  0  0  0
  9 10  1  0  0  0
 10 11  1  0  0  0
 11 12  2  0  0  0
 12 13  1  0  0  0
 13 14  1  0  0  0
 14 15  1  0  0  0
 15 16  1  0  0  0
 16 17  1  0  0  0
 17 18  1  0  0  0
 18 19  1  0  0  0
 19 20  1  0  0  0
  3 21  1  0  0  0
  4 22  1  0  0  0
  4 23  1  0  0  0
  5 24  1  0  0  0
  5 25  1  0  0  0
  6 26  1  0  0  0
  6 27  1  0  0  0
  7 28  1  0  0  0
  7 29  1  0  0  0
  8 30  1  0  0  0
  8 31  1  0  0  0
  9 32  1  0  0  0
  9 33  1  0  0  0
 10 34  1  0  0  0
 10 35  1  0  0  0
 11 36  1  0  0  0
 12 37  1  0  0  0
 13 38  1  0  0  0
 13 39  1  0  0  0
 14 40  1  0  0  0
 14 41  1  0  0  0
 15 42  1  0  0  0
 15 43  1  0  0  0
 16 44  1  0  0  0
 16 45  1  0  0  0
 17 46  1  0  0  0
 17 47  1  0  0  0
 18 48  1  0  0  0
 18 49  1  0  0  0
 19 50  1  0  0  0
 19 51  1  0  0  0
 20 52  1  0  0  0
 20 53  1  0  0  0
 20 54  1  0  0  0
M  END
$$$$
