### 
### Created by X-TOOL on Mon Aug  2 16:14:45 2021
### 

@<TRIPOS>MOLECULE
6md0_ligand
   53    52     1     0     0
SMALL
GAST_HUCK


@<TRIPOS>ATOM
      1 C1         19.1990   18.9740   19.9720 C.2       1 OLA         0.0348
      2 O1         19.7650   18.7870   21.0760 O.co2     1 OLA        -0.5690
      3 O2         18.1490   18.3250   19.6910 O.co2     1 OLA        -0.5690
      4 C2         19.8060   19.9880   18.9980 C.3       1 OLA         0.0002
      5 C3         20.4690   19.3310   17.7880 C.3       1 OLA        -0.0414
      6 C4         19.5030   18.4380   17.0050 C.3       1 OLA        -0.0515
      7 C5         20.1530   17.1620   16.4640 C.3       1 OLA        -0.0528
      8 C6         19.4690   16.6210   15.2040 C.3       1 OLA        -0.0515
      9 C7         18.0330   16.1580   15.4660 C.3       1 OLA        -0.0464
     10 C8         16.9690   17.0220   14.7760 C.3       1 OLA        -0.0365
     11 C9         17.1940   17.1530   13.2640 C.2       1 OLA        -0.0987
     12 C10        16.2100   16.8910   12.4250 C.2       1 OLA        -0.0987
     13 C11        16.4060   17.0140   10.9130 C.3       1 OLA        -0.0365
     14 C12        17.8500   16.7850   10.4670 C.3       1 OLA        -0.0464
     15 C13        18.3310   17.9860    9.6660 C.3       1 OLA        -0.0515
     16 C14        17.3870   19.1600    9.9480 C.3       1 OLA        -0.0529
     17 C15        17.5080   20.3440    8.9860 C.3       1 OLA        -0.0531
     18 C16        16.4610   21.4100    9.3170 C.3       1 OLA        -0.0533
     19 C17        16.6350   22.6500    8.4450 C.3       1 OLA        -0.0559
     20 C18        18.0850   22.8000    7.9890 C.3       1 OLA        -0.0653
     21 H1         20.5628   20.5794   19.5342 H         1 OLA         0.0430
     22 H2         19.0061   20.6533   18.6410 H         1 OLA         0.0430
     23 H3         21.3124   18.7174   18.1374 H         1 OLA         0.0283
     24 H4         20.8421   20.1198   17.1182 H         1 OLA         0.0283
     25 H5         19.1072   19.0141   16.1556 H         1 OLA         0.0266
     26 H6         18.6758   18.1518   17.6712 H         1 OLA         0.0266
     27 H7         20.1078   16.3888   17.2451 H         1 OLA         0.0265
     28 H8         21.2042   17.3801   16.2243 H         1 OLA         0.0265
     29 H9         20.0509   15.7674   14.8262 H         1 OLA         0.0267
     30 H10        19.4496   17.4165   14.4445 H         1 OLA         0.0267
     31 H11        17.8521   16.1853   16.5507 H         1 OLA         0.0285
     32 H12        17.9298   15.1248   15.1029 H         1 OLA         0.0285
     33 H13        16.9899   18.0272   15.2222 H         1 OLA         0.0388
     34 H14        15.9825   16.5659   14.9457 H         1 OLA         0.0388
     35 H15        18.1662   17.4623   12.8832 H         1 OLA         0.0450
     36 H16        15.2416   16.5819   12.8157 H         1 OLA         0.0450
     37 H17        16.1016   18.0246   10.6031 H         1 OLA         0.0388
     38 H18        15.7658   16.2698   10.4168 H         1 OLA         0.0388
     39 H19        17.9013   15.8823    9.8405 H         1 OLA         0.0285
     40 H20        18.4905   16.6542   11.3517 H         1 OLA         0.0285
     41 H21        18.3173   17.7470    8.5924 H         1 OLA         0.0267
     42 H22        19.3546   18.2503    9.9698 H         1 OLA         0.0267
     43 H23        17.5943   19.5259   10.9644 H         1 OLA         0.0265
     44 H24        16.3541   18.7851    9.8968 H         1 OLA         0.0265
     45 H25        17.3527   19.9912    7.9558 H         1 OLA         0.0265
     46 H26        18.5127   20.7827    9.0758 H         1 OLA         0.0265
     47 H27        16.5648   21.6979   10.3735 H         1 OLA         0.0265
     48 H28        15.4580   20.9913    9.1479 H         1 OLA         0.0265
     49 H29        16.3461   23.5399    9.0234 H         1 OLA         0.0263
     50 H30        15.9872   22.5614    7.5604 H         1 OLA         0.0263
     51 H31        18.1814   23.6998    7.3636 H         1 OLA         0.0230
     52 H32        18.3795   21.9149    7.4060 H         1 OLA         0.0230
     53 H33        18.7383   22.8934    8.8690 H         1 OLA         0.0230
@<TRIPOS>BOND
     1    1    2 ar 
     2    1    3 ar 
     3    1    4 1  
     4    4    5 1  
     5    5    6 1  
     6    6    7 1  
     7    7    8 1  
     8    8    9 1  
     9    9   10 1  
    10   10   11 1  
    11   11   12 2  
    12   12   13 1  
    13   13   14 1  
    14   14   15 1  
    15   15   16 1  
    16   16   17 1  
    17   17   18 1  
    18   18   19 1  
    19   19   20 1  
    20    4   21 1  
    21    4   22 1  
    22    5   23 1  
    23    5   24 1  
    24    6   25 1  
    25    6   26 1  
    26    7   27 1  
    27    7   28 1  
    28    8   29 1  
    29    8   30 1  
    30    9   31 1  
    31    9   32 1  
    32   10   33 1  
    33   10   34 1  
    34   11   35 1  
    35   12   36 1  
    36   13   37 1  
    37   13   38 1  
    38   14   39 1  
    39   14   40 1  
    40   15   41 1  
    41   15   42 1  
    42   16   43 1  
    43   16   44 1  
    44   17   45 1  
    45   17   46 1  
    46   18   47 1  
    47   18   48 1  
    48   19   49 1  
    49   19   50 1  
    50   20   51 1  
    51   20   52 1  
    52   20   53 1  
@<TRIPOS>SUBSTRUCTURE
     1 OLA         1

