1bzy_ligand
  -I-interpret- 

 40 42  0  0  0  0  0  0  0  0999 V2000
   12.3300   82.9070   41.2670 P   0  0  0  0  0
    4.9500   84.0600   46.5720 C   0  0  0  0  0
   13.4450   82.9870   42.2380 O   0  0  0  0  0
   12.6420   83.4750   39.9510 O   0  0  0  0  0
   11.8310   81.5140   41.1860 O   0  0  0  0  0
   11.1220   83.6140   41.8860 O   0  0  0  0  0
   11.1220   84.7260   42.7530 C   0  0  0  0  0
   10.0300   85.6060   42.2980 C   0  0  0  0  0
    8.8020   84.8890   42.2260 N   0  3  0  0  0
    9.8970   86.7410   43.2480 C   0  0  0  0  0
    9.8970   87.9360   42.4840 O   0  0  0  0  0
    8.5990   86.4460   43.9420 C   0  0  0  0  0
    7.7480   87.5890   43.9850 O   0  0  0  0  0
    7.8720   85.2670   43.2330 C   0  0  0  0  0
    7.7630   84.0950   44.2180 C   0  0  0  0  0
    8.6610   83.0150   44.3300 C   0  0  0  0  0
    8.3770   82.1430   45.2530 N   0  0  0  0  0
    7.2110   82.6350   45.8400 C   0  0  0  0  0
    6.4410   82.0940   46.9260 C   0  0  0  0  0
    6.6760   81.0690   47.5580 O   0  0  0  0  0
    5.3090   82.8660   47.2390 N   0  0  0  0  0
    3.8420   84.6860   46.9810 N   0  0  0  0  0
    5.6890   84.5850   45.5440 N   0  0  0  0  0
    6.8070   83.8290   45.2170 C   0  0  0  0  0
   13.1702   82.5985   43.0718 H   0  0  0  0  0
   11.6426   81.1909   42.0701 H   0  0  0  0  0
   12.0804   85.2444   42.7254 H   0  0  0  0  0
   10.9709   84.4166   43.7872 H   0  0  0  0  0
   10.2647   85.9799   41.3014 H   0  0  0  0  0
    9.0138   83.8998   42.3568 H   0  0  0  0  0
    8.3776   85.0934   41.3213 H   0  0  0  0  0
   10.6930   86.8619   43.9828 H   0  0  0  0  0
    9.8121   88.6903   43.0718 H   0  0  0  0  0
    8.8300   86.1674   44.9702 H   0  0  0  0  0
    6.9309   87.3615   44.4347 H   0  0  0  0  0
    6.8787   85.5240   42.8649 H   0  0  0  0  0
    9.5352   82.9166   43.6864 H   0  0  0  0  0
    4.7071   82.5439   47.9969 H   0  0  0  0  0
    3.5487   85.5517   46.5283 H   0  0  0  0  0
    3.2898   84.2979   47.7458 H   0  0  0  0  0
  1  3  1  0  0  0
  1  4  2  0  0  0
  1  5  1  0  0  0
  1  6  1  0  0  0
  6  7  1  0  0  0
  7  8  1  0  0  0
  8  9  1  0  0  0
  8 10  1  0  0  0
  9 14  1  0  0  0
 10 11  1  0  0  0
 10 12  1  0  0  0
 12 13  1  0  0  0
 12 14  1  0  0  0
 14 15  1  0  0  0
 15 16  4  0  0  0
 15 24  4  0  0  0
 16 17  4  0  0  0
 17 18  4  0  0  0
 18 19  1  0  0  0
 18 24  4  0  0  0
 19 20  2  0  0  0
 19 21  1  0  0  0
 24 23  1  0  0  0
 23  2  2  0  0  0
  2 22  1  0  0  0
 21  2  1  0  0  0
  3 25  1  0  0  0
  5 26  1  0  0  0
  7 27  1  0  0  0
  7 28  1  0  0  0
  8 29  1  0  0  0
  9 30  1  0  0  0
  9 31  1  0  0  0
 10 32  1  0  0  0
 11 33  1  0  0  0
 12 34  1  0  0  0
 13 35  1  0  0  0
 14 36  1  0  0  0
 16 37  1  0  0  0
 21 38  1  0  0  0
 22 39  1  0  0  0
 22 40  1  0  0  0
M  END
$$$$
