### 
### Created by X-TOOL on Mon Sep 10 21:12:47 2018
### 

@<TRIPOS>MOLECULE
1bzy_ligand
   39    41     1     0     0
SMALL
GAST_HUCK


@<TRIPOS>ATOM
      1 P          12.3300   82.9070   41.2670 P.3       1 IMU         0.2010
      2 C2          4.9500   84.0600   46.5720 C.2       1 IMU         0.2207
      3 O1P        13.4450   82.9870   42.2380 O.co2     1 IMU        -0.5537
      4 O2P        12.6420   83.4750   39.9510 O.co2     1 IMU        -0.5537
      5 O3P        11.8310   81.5140   41.1860 O.co2     1 IMU        -0.5537
      6 O5'        11.1220   83.6140   41.8860 O.3       1 IMU        -0.2704
      7 C5'        11.1220   84.7260   42.7530 C.3       1 IMU         0.1233
      8 C4'        10.0300   85.6060   42.2980 C.3       1 IMU         0.0361
      9 N4'         8.8020   84.8890   42.2260 N.4       1 IMU         0.2436
     10 C3'         9.8970   86.7410   43.2480 C.3       1 IMU         0.1320
     11 O3'         9.8970   87.9360   42.4840 O.3       1 IMU        -0.3832
     12 C2'         8.5990   86.4460   43.9420 C.3       1 IMU         0.1325
     13 O2'         7.7480   87.5890   43.9850 O.3       1 IMU        -0.3822
     14 C1'         7.8720   85.2670   43.2330 C.3       1 IMU         0.0233
     15 C9          7.7630   84.0950   44.2180 C.2       1 IMU        -0.0005
     16 C8          8.6610   83.0150   44.3300 C.2       1 IMU         0.0195
     17 N7          8.3770   82.1430   45.2530 N.pl3     1 IMU        -0.2946
     18 C5          7.2110   82.6350   45.8400 C.2       1 IMU         0.1229
     19 C6          6.4410   82.0940   46.9260 C.2       1 IMU         0.2353
     20 O6          6.6760   81.0690   47.5580 O.2       1 IMU        -0.4038
     21 N1          5.3090   82.8660   47.2390 N.am      1 IMU        -0.1858
     22 N2          3.8420   84.6860   46.9810 N.pl3     1 IMU        -0.2850
     23 N3          5.6890   84.5850   45.5440 N.2       1 IMU        -0.3286
     24 C4          6.8070   83.8290   45.2170 C.2       1 IMU        -0.0042
     25 H1         12.0854   85.2538   42.6954 H         1 IMU         0.0670
     26 H2         10.9430   84.4014   43.7887 H         1 IMU         0.0670
     27 H3         10.2745   85.9958   41.2989 H         1 IMU         0.0904
     28 H4          8.9991   83.9055   42.3251 H         1 IMU         0.2029
     29 H5          8.3844   85.0588   41.3244 H         1 IMU         0.2029
     30 H6         10.7230   86.7680   43.9739 H         1 IMU         0.0680
     31 H7          9.8130   88.6824   43.0656 H         1 IMU         0.2102
     32 H8          8.8236   86.1467   44.9764 H         1 IMU         0.0692
     33 H9          8.1846   88.2900   44.4545 H         1 IMU         0.2103
     34 H10         6.8904   85.5536   42.8276 H         1 IMU         0.0958
     35 H11         9.5344   82.9167   43.6870 H         1 IMU         0.0774
     36 H12         8.8945   81.2859   45.4948 H         1 IMU         0.2247
     37 H13         4.7189   82.5502   47.9820 H         1 IMU         0.2487
     38 H14         3.5445   85.5589   46.5223 H         1 IMU         0.1874
     39 H15         3.2857   84.2955   47.7549 H         1 IMU         0.1874
@<TRIPOS>BOND
     1    1    3 ar 
     2    1    4 ar 
     3    1    5 ar 
     4    1    6 1  
     5    6    7 1  
     6    7    8 1  
     7    8    9 1  
     8    8   10 1  
     9    9   14 1  
    10   10   11 1  
    11   10   12 1  
    12   12   13 1  
    13   12   14 1  
    14   14   15 1  
    15   15   16 2  
    16   15   24 1  
    17   16   17 1  
    18   17   18 1  
    19   18   19 1  
    20   18   24 2  
    21   19   20 2  
    22   19   21 am 
    23   24   23 1  
    24   23    2 2  
    25    2   22 1  
    26   21    2 am 
    27    7   25 1  
    28    7   26 1  
    29    8   27 1  
    30    9   28 1  
    31    9   29 1  
    32   10   30 1  
    33   11   31 1  
    34   12   32 1  
    35   13   33 1  
    36   14   34 1  
    37   16   35 1  
    38   17   36 1  
    39   21   37 1  
    40   22   38 1  
    41   22   39 1  
@<TRIPOS>SUBSTRUCTURE
     1 IMU         1

