6p5o_ligand
  -I-interpret- 

 21 21  0  0  0  0  0  0  0  0999 V2000
    3.8800   -7.5850    7.8020 O   0  0  0  0  0
    3.7870   -7.0330    8.8750 C   0  0  0  0  0
    4.7540   -6.7750    9.6640 O   0  0  0  0  0
    2.4150   -6.5080    9.1570 C   0  0  0  0  0
    2.5240   -4.7390    9.6500 S   0  0  0  0  0
    0.7940   -4.2420    9.7580 C   0  0  0  0  0
   -0.1940   -5.1860    9.5640 C   0  0  0  0  0
   -1.5260   -4.8210    9.6640 C   0  0  0  0  0
   -1.8640   -3.5040    9.9190 C   0  0  0  0  0
   -0.9210   -2.5830   10.1070 N   0  0  0  0  0
    0.4080   -2.9090   10.0590 C   0  0  0  0  0
    1.3250   -1.8650   10.2850 C   0  0  0  0  0
    2.5630   -2.1500   10.2870 O   0  0  0  0  0
    0.8860   -0.6880   10.5380 O   0  0  0  0  0
    4.4174   -6.3337   10.4473 H   0  0  0  0  0
    1.9652   -7.0834    9.9661 H   0  0  0  0  0
    1.8005   -6.5982    8.2613 H   0  0  0  0  0
    0.0737   -6.2169    9.3325 H   0  0  0  0  0
   -2.3076   -5.5708    9.5419 H   0  0  0  0  0
   -2.9144   -3.2170    9.9666 H   0  0  0  0  0
   -0.0725   -0.6869   10.4847 H   0  0  0  0  0
  1  2  2  0  0  0
  2  3  1  0  0  0
  2  4  1  0  0  0
  4  5  1  0  0  0
  5  6  1  0  0  0
  6  7  4  0  0  0
  6 11  4  0  0  0
  7  8  4  0  0  0
  8  9  4  0  0  0
  9 10  4  0  0  0
 10 11  4  0  0  0
 11 12  1  0  0  0
 12 13  2  0  0  0
 12 14  1  0  0  0
  3 15  1  0  0  0
  4 16  1  0  0  0
  4 17  1  0  0  0
  7 18  1  0  0  0
  8 19  1  0  0  0
  9 20  1  0  0  0
 14 21  1  0  0  0
M  END
$$$$
