### 
### Created by X-TOOL on Mon Aug  2 16:15:58 2021
### 

@<TRIPOS>MOLECULE
6p5o_ligand
   19    19     1     0     0
SMALL
GAST_HUCK


@<TRIPOS>ATOM
      1 O14         3.8800   -7.5850    7.8020 O.co2     1 O2Y        -0.5680
      2 C12         3.7870   -7.0330    8.8750 C.2       1 O2Y         0.0472
      3 O13         4.7540   -6.7750    9.6640 O.co2     1 O2Y        -0.5680
      4 C11         2.4150   -6.5080    9.1570 C.3       1 O2Y         0.0617
      5 S10         2.5240   -4.7390    9.6500 S.3       1 O2Y        -0.0743
      6 C6          0.7940   -4.2420    9.7580 C.ar      1 O2Y         0.0599
      7 C5         -0.1940   -5.1860    9.5640 C.ar      1 O2Y        -0.0261
      8 C4         -1.5260   -4.8210    9.6640 C.ar      1 O2Y        -0.0371
      9 C3         -1.8640   -3.5040    9.9190 C.ar      1 O2Y         0.0078
     10 N2         -0.9210   -2.5830   10.1070 N.ar      1 O2Y        -0.2887
     11 C1          0.4080   -2.9090   10.0590 C.ar      1 O2Y         0.0944
     12 C7          1.3250   -1.8650   10.2850 C.2       1 O2Y         0.0775
     13 O8          2.5630   -2.1500   10.2870 O.co2     1 O2Y        -0.5594
     14 O9          0.8860   -0.6880   10.5380 O.co2     1 O2Y        -0.5594
     15 H1          1.9609   -7.0887    9.9734 H         1 O2Y         0.0572
     16 H2          1.7947   -6.5991    8.2532 H         1 O2Y         0.0572
     17 H3          0.0723   -6.2113    9.3338 H         1 O2Y         0.0693
     18 H4         -2.3033   -5.5667    9.5426 H         1 O2Y         0.0712
     19 H5         -2.9087   -3.2185    9.9663 H         1 O2Y         0.0777
@<TRIPOS>BOND
     1    1    2 ar 
     2    2    3 ar 
     3    2    4 1  
     4    4    5 1  
     5    5    6 1  
     6    6    7 ar 
     7    6   11 ar 
     8    7    8 ar 
     9    8    9 ar 
    10    9   10 ar 
    11   10   11 ar 
    12   11   12 1  
    13   12   13 ar 
    14   12   14 ar 
    15    4   15 1  
    16    4   16 1  
    17    7   17 1  
    18    8   18 1  
    19    9   19 1  
@<TRIPOS>SUBSTRUCTURE
     1 O2Y         1

