5l7e_ligand
  -I-interpret- 

 42 44  0  0  0  0  0  0  0  0999 V2000
   10.3520   16.3560   17.3590 C   0  0  0  0  0
   10.8700   17.5760   17.7570 C   0  0  0  0  0
    9.2990   15.7880   18.0540 C   0  0  0  0  0
    5.8510   17.8850   17.7270 C   0  0  0  0  0
   10.3420   18.2530   18.8440 C   0  0  0  0  0
    8.7600   16.4620   19.1340 C   0  0  0  0  0
    7.1600   17.8330   15.7150 C   0  0  0  0  0
    7.4590   17.2550   14.4220 C   0  0  0  0  0
    6.6000   18.9480   18.1970 C   0  0  0  0  0
    9.2790   17.6870   19.5150 C   0  0  0  0  0
    7.6580   17.8840   13.1680 C   0  0  0  0  0
    7.6090   15.9130   14.1360 C   0  0  0  0  0
    7.6120   19.3110   12.8190 C   0  0  0  0  0
    7.9100   18.9030   16.1800 C   0  0  0  0  0
    6.1210   17.3290   16.4880 C   0  0  0  0  0
    7.6130   19.4570   17.4080 C   0  0  0  0  0
    7.5660   14.6440   14.8920 C   0  0  0  0  0
    6.3210   19.5330   19.5490 C   0  0  0  0  0
    7.9030   17.0060   12.1940 N   0  0  0  0  0
    7.5580   19.8160   20.3320 N   0  0  0  0  0
    7.7200   17.5350   21.5510 O   0  0  0  0  0
    9.6640   19.1070   21.6480 O   0  0  0  0  0
    7.8790   15.7670   12.8160 O   0  0  0  0  0
    8.5540   18.5230   20.9160 S   0  0  0  0  0
   10.7745   15.8414   16.4960 H   0  0  0  0  0
   11.7052   18.0103   17.2074 H   0  0  0  0  0
    8.8988   14.8197   17.7533 H   0  0  0  0  0
    5.0421   17.4818   18.3363 H   0  0  0  0  0
   10.7568   19.2098   19.1611 H   0  0  0  0  0
    7.9259   16.0284   19.6857 H   0  0  0  0  0
    6.6233   19.7082   13.0487 H   0  0  0  0  0
    8.3642   19.8492   13.3957 H   0  0  0  0  0
    7.8145   19.4301   11.7546 H   0  0  0  0  0
    8.7274   19.3029   15.5800 H   0  0  0  0  0
    5.5198   16.4977   16.1197 H   0  0  0  0  0
    8.1884   20.3123   17.7622 H   0  0  0  0  0
    8.3325   14.6580   15.6669 H   0  0  0  0  0
    6.5845   14.5297   15.3521 H   0  0  0  0  0
    7.7494   13.8115   14.2127 H   0  0  0  0  0
    5.7341   18.8053   20.1095 H   0  0  0  0  0
    5.8008   20.4791   19.3990 H   0  0  0  0  0
    7.8213   20.7821   20.5263 H   0  0  0  0  0
  2  1  4  0  0  0
  3  1  4  0  0  0
  5  2  4  0  0  0
  6  3  4  0  0  0
  9  4  4  0  0  0
  4 15  4  0  0  0
 10  5  4  0  0  0
 10  6  4  0  0  0
  7  8  1  0  0  0
 14  7  4  0  0  0
 15  7  4  0  0  0
  8 11  4  0  0  0
  8 12  4  0  0  0
  9 16  4  0  0  0
 18  9  1  0  0  0
 24 10  1  0  0  0
 11 13  1  0  0  0
 11 19  4  0  0  0
 12 17  1  0  0  0
 12 23  4  0  0  0
 16 14  4  0  0  0
 20 18  1  0  0  0
 23 19  4  0  0  0
 20 24  1  0  0  0
 24 21  2  0  0  0
 24 22  2  0  0  0
  1 25  1  0  0  0
  2 26  1  0  0  0
  3 27  1  0  0  0
  4 28  1  0  0  0
  5 29  1  0  0  0
  6 30  1  0  0  0
 13 31  1  0  0  0
 13 32  1  0  0  0
 13 33  1  0  0  0
 14 34  1  0  0  0
 15 35  1  0  0  0
 16 36  1  0  0  0
 17 37  1  0  0  0
 17 38  1  0  0  0
 17 39  1  0  0  0
 18 40  1  0  0  0
 18 41  1  0  0  0
 20 42  1  0  0  0
M  END
$$$$
