### 
### Created by X-TOOL on Mon Sep 10 21:13:27 2018
### 

@<TRIPOS>MOLECULE
5l7e_ligand
   42    44     1     0     0
SMALL
GAST_HUCK


@<TRIPOS>ATOM
      1 C1         10.3520   16.3560   17.3590 C.ar      1 6Q0        -0.0616
      2 C2         10.8700   17.5760   17.7570 C.ar      1 6Q0        -0.0599
      3 C3          9.2990   15.7880   18.0540 C.ar      1 6Q0        -0.0599
      4 C7          5.8510   17.8850   17.7270 C.ar      1 6Q0        -0.0652
      5 C8         10.3420   18.2530   18.8440 C.ar      1 6Q0        -0.0351
      6 C9          8.7600   16.4620   19.1340 C.ar      1 6Q0        -0.0351
      7 C10         7.1600   17.8330   15.7150 C.ar      1 6Q0        -0.0457
      8 C11         7.4590   17.2550   14.4220 C.2       1 6Q0         0.0163
      9 C12         6.6000   18.9480   18.1970 C.ar      1 6Q0        -0.0306
     10 C13         9.2790   17.6870   19.5150 C.ar      1 6Q0         0.1083
     11 C14         7.6580   17.8840   13.1680 C.2       1 6Q0         0.0221
     12 C15         7.6090   15.9130   14.1360 C.2       1 6Q0         0.1442
     13 C16         7.6120   19.3110   12.8190 C.3       1 6Q0        -0.0272
     14 C4          7.9100   18.9030   16.1800 C.ar      1 6Q0        -0.0711
     15 C5          6.1210   17.3290   16.4880 C.ar      1 6Q0        -0.0711
     16 C6          7.6130   19.4570   17.4080 C.ar      1 6Q0        -0.0652
     17 C17         7.5660   14.6440   14.8920 C.3       1 6Q0         0.0121
     18 C18         6.3210   19.5330   19.5490 C.3       1 6Q0         0.0575
     19 N19         7.9030   17.0060   12.1940 N.2       1 6Q0        -0.1681
     20 N20         7.5580   19.8160   20.3320 N.am      1 6Q0        -0.2370
     21 O21         7.7200   17.5350   21.5510 O.2       1 6Q0        -0.1501
     22 O22         9.6640   19.1070   21.6480 O.2       1 6Q0        -0.1501
     23 O23         7.8790   15.7670   12.8160 O.3       1 6Q0        -0.1750
     24 S24         8.5540   18.5230   20.9160 S.o2      1 6Q0         0.0699
     25 H1         10.7722   15.8442   16.5008 H         1 6Q0         0.0618
     26 H2         11.7006   18.0079   17.2104 H         1 6Q0         0.0618
     27 H3          8.9010   14.8251   17.7549 H         1 6Q0         0.0618
     28 H4          5.0466   17.4840   18.3329 H         1 6Q0         0.0542
     29 H5         10.7545   19.2045   19.1593 H         1 6Q0         0.0637
     30 H6          7.9305   16.0308   19.6826 H         1 6Q0         0.0637
     31 H7          7.8162   19.4325   11.7450 H         1 6Q0         0.0378
     32 H8          8.3707   19.8553   13.4004 H         1 6Q0         0.0378
     33 H9          6.6146   19.7131   13.0503 H         1 6Q0         0.0378
     34 H10         8.7229   19.3007   15.5833 H         1 6Q0         0.0541
     35 H11         5.5231   16.5023   16.1217 H         1 6Q0         0.0541
     36 H12         8.1853   20.3076   17.7603 H         1 6Q0         0.0542
     37 H13         7.7510   13.8030   14.2075 H         1 6Q0         0.0465
     38 H14         6.5759   14.5274   15.3568 H         1 6Q0         0.0465
     39 H15         8.3391   14.6569   15.6743 H         1 6Q0         0.0465
     40 H16         5.7025   18.8223   20.1168 H         1 6Q0         0.0628
     41 H17         5.7685   20.4747   19.4155 H         1 6Q0         0.0628
     42 H18         7.8161   20.7631   20.5225 H         1 6Q0         0.1698
@<TRIPOS>BOND
     1    2    1 ar 
     2    3    1 ar 
     3    5    2 ar 
     4    6    3 ar 
     5    9    4 ar 
     6    4   15 ar 
     7   10    5 ar 
     8   10    6 ar 
     9    7    8 1  
    10   14    7 ar 
    11   15    7 ar 
    12    8   11 1  
    13    8   12 2  
    14    9   16 ar 
    15   18    9 1  
    16   24   10 1  
    17   11   13 1  
    18   11   19 2  
    19   12   17 1  
    20   12   23 1  
    21   16   14 ar 
    22   20   18 1  
    23   23   19 1  
    24   20   24 am 
    25   24   21 2  
    26   24   22 2  
    27    1   25 1  
    28    2   26 1  
    29    3   27 1  
    30    4   28 1  
    31    5   29 1  
    32    6   30 1  
    33   13   31 1  
    34   13   32 1  
    35   13   33 1  
    36   14   34 1  
    37   15   35 1  
    38   16   36 1  
    39   17   37 1  
    40   17   38 1  
    41   17   39 1  
    42   18   40 1  
    43   18   41 1  
    44   20   42 1  
@<TRIPOS>SUBSTRUCTURE
     1 6Q0         1

