### 
### Created by X-TOOL on Mon Aug  2 16:13:05 2021
### 

@<TRIPOS>MOLECULE
6dyy_ligand
   64    67     1     0     0
SMALL
GAST_HUCK


@<TRIPOS>ATOM
      1 O          34.8650   73.0940   24.1510 O.3       1 OS6        -0.3860
      2 C15        35.8330   74.1590   24.1550 C.3       1 OS6         0.1032
      3 C14        35.9090   74.8250   25.5020 C.3       1 OS6        -0.0040
      4 N          36.6300   73.7880   26.2960 N.4       1 OS6         0.2442
      5 C7         37.0820   74.2380   27.6140 C.3       1 OS6        -0.0117
      6 C8         38.2510   75.1940   27.7260 C.2       1 OS6         0.0166
      7 C13        38.3910   76.5610   27.4900 C.ar      1 OS6         0.0483
      8 N4         37.4810   77.4550   27.0130 N.ar      1 OS6        -0.3132
      9 C12        37.8440   78.7390   26.8500 C.ar      1 OS6         0.0439
     10 N3         39.1060   79.1880   27.1210 N.ar      1 OS6        -0.2741
     11 C11        40.0370   78.3040   27.6020 C.ar      1 OS6         0.1459
     12 N2         41.2710   78.7620   27.8900 N.pl3     1 OS6        -0.3157
     13 C10        39.6830   76.9560   27.7890 C.ar      1 OS6         0.1304
     14 N1         40.3430   75.8550   28.2220 N.pl3     1 OS6        -0.2768
     15 C9         39.4980   74.7990   28.1840 C.2       1 OS6         0.0326
     16 C6         37.6630   73.2480   25.3880 C.3       1 OS6        -0.0248
     17 C5         37.2560   73.6370   23.9760 C.3       1 OS6         0.0391
     18 C4         38.1890   74.6990   23.3970 C.3       1 OS6         0.0039
     19 S          38.1160   74.7620   21.6360 S.3       1 OS6        -0.1601
     20 C3         39.1890   73.4200   21.1520 C.3       1 OS6        -0.0050
     21 C2         39.2950   73.2360   19.6330 C.3       1 OS6        -0.0372
     22 C1         40.3990   72.2240   19.3040 C.3       1 OS6        -0.0177
     23 C          40.2200   71.6820   17.9020 C.2       1 OS6         0.0370
     24 N5         40.3140   72.4260   16.7640 N.2       1 OS6        -0.2265
     25 N7         40.0780   71.5900   15.6580 N.2       1 OS6        -0.1020
     26 N6         39.8260   70.3330   16.2090 N.pl3     1 OS6        -0.1813
     27 C16        39.9050   70.3670   17.5490 C.2       1 OS6         0.0693
     28 C17        39.5380   69.2710   15.2410 C.3       1 OS6         0.0754
     29 C18        38.2520   68.5570   15.6430 C.3       1 OS6        -0.0228
     30 C20        36.3800   67.1030   14.8210 C.3       1 OS6        -0.0652
     31 C19        37.6410   67.8540   14.4360 C.3       1 OS6        -0.0532
     32 H1         34.0083   73.4454   24.3634 H         1 OS6         0.2100
     33 H2         35.5768   74.8836   23.3681 H         1 OS6         0.0652
     34 H3         34.9073   75.0223   25.9115 H         1 OS6         0.0840
     35 H4         36.4780   75.7653   25.4556 H         1 OS6         0.0840
     36 H5         35.9790   73.0406   26.4795 H         1 OS6         0.2042
     37 H6         37.3535   73.3360   28.1820 H         1 OS6         0.0901
     38 H7         36.2228   74.7290   28.0942 H         1 OS6         0.0901
     39 H8         37.1063   79.4465   26.4892 H         1 OS6         0.0956
     40 H9         41.9879   78.1175   28.2526 H         1 OS6         0.1805
     41 H10        41.4974   79.7567   27.7475 H         1 OS6         0.1805
     42 H11        41.3257   75.8265   28.5293 H         1 OS6         0.2266
     43 H12        39.7606   73.7823   28.4725 H         1 OS6         0.0886
     44 H13        37.7121   72.1529   25.4794 H         1 OS6         0.0818
     45 H14        38.6445   73.6807   25.6316 H         1 OS6         0.0818
     46 H15        37.2636   72.7581   23.3146 H         1 OS6         0.0388
     47 H16        39.2206   74.4677   23.7006 H         1 OS6         0.0382
     48 H17        37.9000   75.6814   23.7988 H         1 OS6         0.0382
     49 H18        38.7997   72.4885   21.5888 H         1 OS6         0.0377
     50 H19        40.1953   73.6187   21.5493 H         1 OS6         0.0377
     51 H20        39.5349   74.2020   19.1647 H         1 OS6         0.0289
     52 H21        38.3349   72.8676   19.2426 H         1 OS6         0.0289
     53 H22        40.3535   71.3922   20.0223 H         1 OS6         0.0380
     54 H23        41.3783   72.7195   19.3783 H         1 OS6         0.0380
     55 H24        39.7529   69.5307   18.2298 H         1 OS6         0.0898
     56 H25        40.3693   68.5507   15.2277 H         1 OS6         0.0648
     57 H26        39.4169   69.7097   14.2396 H         1 OS6         0.0648
     58 H27        37.5353   69.2931   16.0360 H         1 OS6         0.0294
     59 H28        38.4774   67.8130   16.4212 H         1 OS6         0.0294
     60 H29        35.9627   66.6072   13.9321 H         1 OS6         0.0230
     61 H30        35.6416   67.8101   15.2269 H         1 OS6         0.0230
     62 H31        36.6215   66.3473   15.5829 H         1 OS6         0.0230
     63 H32        38.3725   67.1416   14.0270 H         1 OS6         0.0264
     64 H33        37.3926   68.6044   13.6710 H         1 OS6         0.0264
@<TRIPOS>BOND
     1    1    2 1  
     2    2    3 1  
     3    2   17 1  
     4    3    4 1  
     5    4    5 1  
     6    4   16 1  
     7    5    6 1  
     8    6    7 1  
     9    6   15 2  
    10    7    8 ar 
    11    7   13 ar 
    12    8    9 ar 
    13    9   10 ar 
    14   10   11 ar 
    15   11   12 1  
    16   11   13 ar 
    17   13   14 1  
    18   14   15 1  
    19   16   17 1  
    20   17   18 1  
    21   18   19 1  
    22   19   20 1  
    23   20   21 1  
    24   21   22 1  
    25   22   23 1  
    26   23   24 1  
    27   23   27 2  
    28   24   25 2  
    29   25   26 1  
    30   26   27 1  
    31   26   28 1  
    32   28   29 1  
    33   29   31 1  
    34   31   30 1  
    35    1   32 1  
    36    2   33 1  
    37    3   34 1  
    38    3   35 1  
    39    4   36 1  
    40    5   37 1  
    41    5   38 1  
    42    9   39 1  
    43   12   40 1  
    44   12   41 1  
    45   14   42 1  
    46   15   43 1  
    47   16   44 1  
    48   16   45 1  
    49   17   46 1  
    50   18   47 1  
    51   18   48 1  
    52   20   49 1  
    53   20   50 1  
    54   21   51 1  
    55   21   52 1  
    56   22   53 1  
    57   22   54 1  
    58   27   55 1  
    59   28   56 1  
    60   28   57 1  
    61   29   58 1  
    62   29   59 1  
    63   30   60 1  
    64   30   61 1  
    65   30   62 1  
    66   31   63 1  
    67   31   64 1  
@<TRIPOS>SUBSTRUCTURE
     1 OS6         1

