6dyy_ligand
  -I-interpret- 

 63 66  0  0  0  0  0  0  0  0999 V2000
   34.8650   73.0940   24.1510 O   0  0  0  0  0
   35.8330   74.1590   24.1550 C   0  0  0  0  0
   35.9090   74.8250   25.5020 C   0  0  0  0  0
   36.6300   73.7880   26.2960 N   0  3  0  0  0
   37.0820   74.2380   27.6140 C   0  0  0  0  0
   38.2510   75.1940   27.7260 C   0  0  0  0  0
   38.3910   76.5610   27.4900 C   0  0  0  0  0
   37.4810   77.4550   27.0130 N   0  0  0  0  0
   37.8440   78.7390   26.8500 C   0  0  0  0  0
   39.1060   79.1880   27.1210 N   0  0  0  0  0
   40.0370   78.3040   27.6020 C   0  0  0  0  0
   41.2710   78.7620   27.8900 N   0  0  0  0  0
   39.6830   76.9560   27.7890 C   0  0  0  0  0
   40.3430   75.8550   28.2220 N   0  0  0  0  0
   39.4980   74.7990   28.1840 C   0  0  0  0  0
   37.6630   73.2480   25.3880 C   0  0  0  0  0
   37.2560   73.6370   23.9760 C   0  0  0  0  0
   38.1890   74.6990   23.3970 C   0  0  0  0  0
   38.1160   74.7620   21.6360 S   0  0  0  0  0
   39.1890   73.4200   21.1520 C   0  0  0  0  0
   39.2950   73.2360   19.6330 C   0  0  0  0  0
   40.3990   72.2240   19.3040 C   0  0  0  0  0
   40.2200   71.6820   17.9020 C   0  0  0  0  0
   40.3140   72.4260   16.7640 N   0  0  0  0  0
   40.0780   71.5900   15.6580 N   0  0  0  0  0
   39.8260   70.3330   16.2090 N   0  0  0  0  0
   39.9050   70.3670   17.5490 C   0  0  0  0  0
   39.5380   69.2710   15.2410 C   0  0  0  0  0
   38.2520   68.5570   15.6430 C   0  0  0  0  0
   36.3800   67.1030   14.8210 C   0  0  0  0  0
   37.6410   67.8540   14.4360 C   0  0  0  0  0
   33.9857   73.4619   24.2656 H   0  0  0  0  0
   35.5114   74.8217   23.3515 H   0  0  0  0  0
   34.9370   75.0969   25.9136 H   0  0  0  0  0
   36.4093   75.7933   25.4862 H   0  0  0  0  0
   36.0087   73.0336   26.5881 H   0  0  0  0  0
   37.4235   73.3297   28.1104 H   0  0  0  0  0
   36.2355   74.7932   28.0181 H   0  0  0  0  0
   37.1022   79.4504   26.4872 H   0  0  0  0  0
   41.4952   79.7470   27.7489 H   0  0  0  0  0
   41.9810   78.1237   28.2491 H   0  0  0  0  0
   39.7609   73.7814   28.4728 H   0  0  0  0  0
   37.7355   72.1648   25.4852 H   0  0  0  0  0
   38.6444   73.6539   25.6335 H   0  0  0  0  0
   37.3130   72.8092   23.2692 H   0  0  0  0  0
   39.2096   74.4471   23.6852 H   0  0  0  0  0
   37.8793   75.6697   23.7841 H   0  0  0  0  0
   38.7703   72.5018   21.5640 H   0  0  0  0  0
   40.1876   73.6495   21.5239 H   0  0  0  0  0
   39.5366   74.1935   19.1715 H   0  0  0  0  0
   38.3439   72.8672   19.2489 H   0  0  0  0  0
   40.3450   71.3978   20.0129 H   0  0  0  0  0
   41.3667   72.7211   19.3708 H   0  0  0  0  0
   39.7527   69.5300   18.2304 H   0  0  0  0  0
   40.3620   68.5576   15.2265 H   0  0  0  0  0
   39.4191   69.7050   14.2482 H   0  0  0  0  0
   37.5419   69.2897   16.0265 H   0  0  0  0  0
   38.4797   67.8165   16.4098 H   0  0  0  0  0
   36.6206   66.3545   15.5760 H   0  0  0  0  0
   35.6492   67.8047   15.2231 H   0  0  0  0  0
   35.9675   66.6122   13.9395 H   0  0  0  0  0
   38.3659   67.1404   14.0444 H   0  0  0  0  0
   37.3851   68.6045   13.6881 H   0  0  0  0  0
  1  2  1  0  0  0
  2  3  1  0  0  0
  2 17  1  0  0  0
  3  4  1  0  0  0
  4  5  1  0  0  0
  4 16  1  0  0  0
  5  6  1  0  0  0
  6  7  4  0  0  0
  6 15  4  0  0  0
  7  8  4  0  0  0
  7 13  4  0  0  0
  8  9  4  0  0  0
  9 10  4  0  0  0
 10 11  4  0  0  0
 11 12  1  0  0  0
 11 13  4  0  0  0
 13 14  4  0  0  0
 14 15  4  0  0  0
 16 17  1  0  0  0
 17 18  1  0  0  0
 18 19  1  0  0  0
 19 20  1  0  0  0
 20 21  1  0  0  0
 21 22  1  0  0  0
 22 23  1  0  0  0
 23 24  4  0  0  0
 23 27  4  0  0  0
 24 25  4  0  0  0
 25 26  4  0  0  0
 26 27  4  0  0  0
 26 28  1  0  0  0
 28 29  1  0  0  0
 29 31  1  0  0  0
 31 30  1  0  0  0
  1 32  1  0  0  0
  2 33  1  0  0  0
  3 34  1  0  0  0
  3 35  1  0  0  0
  4 36  1  0  0  0
  5 37  1  0  0  0
  5 38  1  0  0  0
  9 39  1  0  0  0
 12 40  1  0  0  0
 12 41  1  0  0  0
 15 42  1  0  0  0
 16 43  1  0  0  0
 16 44  1  0  0  0
 17 45  1  0  0  0
 18 46  1  0  0  0
 18 47  1  0  0  0
 20 48  1  0  0  0
 20 49  1  0  0  0
 21 50  1  0  0  0
 21 51  1  0  0  0
 22 52  1  0  0  0
 22 53  1  0  0  0
 27 54  1  0  0  0
 28 55  1  0  0  0
 28 56  1  0  0  0
 29 57  1  0  0  0
 29 58  1  0  0  0
 30 59  1  0  0  0
 30 60  1  0  0  0
 30 61  1  0  0  0
 31 62  1  0  0  0
 31 63  1  0  0  0
M  END
$$$$
