### 
### Created by X-TOOL on Mon Sep 10 21:12:57 2018
### 

@<TRIPOS>MOLECULE
2za0_ligand
   38    39     1     0     0
SMALL
GAST_HUCK


@<TRIPOS>ATOM
      1 O2         47.1770   28.2680   58.5000 O.2       1 MGI        -0.3726
      2 C1         46.8420   29.4440   58.5450 C.2       1 MGI         0.2442
      3 O1         47.8880   30.4530   58.5820 O.3       1 MGI        -0.2852
      4 C9         49.2840   30.1420   58.7540 C.3       1 MGI         0.0640
      5 C2         45.3720   29.8120   58.5920 C.ar      1 MGI         0.0803
      6 C7         44.4190   28.7610   58.7010 C.ar      1 MGI         0.0968
      7 O3         44.8100   27.4610   58.7590 O.3       1 MGI        -0.3317
      8 C6         43.0680   29.0460   58.7550 C.ar      1 MGI        -0.0016
      9 C3         44.8870   31.1850   58.5320 C.ar      1 MGI        -0.0398
     10 C8         45.7660   32.4140   58.4040 C.3       1 MGI        -0.0319
     11 C4         43.5170   31.4340   58.5920 C.ar      1 MGI        -0.0326
     12 C5         42.5980   30.3930   58.7040 C.ar      1 MGI         0.1033
     13 O4         41.2820   30.7380   58.7630 O.3       1 MGI        -0.2672
     14 C10        40.2470   29.8870   59.1270 C.ar      1 MGI         0.1313
     15 C15        40.2080   29.2260   60.4030 C.ar      1 MGI        -0.0459
     16 C11        39.2200   29.6720   58.1950 C.ar      1 MGI         0.1419
     17 O5         39.2590   30.3000   57.0020 O.3       1 MGI        -0.3455
     18 C12        38.1580   28.8120   58.4930 C.ar      1 MGI         0.1027
     19 O6         37.1560   28.5990   57.5650 O.3       1 MGI        -0.3414
     20 C13        38.1150   28.1500   59.7600 C.ar      1 MGI        -0.0504
     21 C14        39.1340   28.3590   60.7080 C.ar      1 MGI        -0.0725
     22 C16        39.0680   27.6600   62.0280 C.3       1 MGI        -0.0407
     23 H1         49.8704   31.0726   58.7477 H         1 MGI         0.0574
     24 H2         49.6189   29.4921   57.9321 H         1 MGI         0.0574
     25 H3         49.4288   29.6239   59.7135 H         1 MGI         0.0574
     26 H4         45.2915   27.2408   57.9702 H         1 MGI         0.2505
     27 H5         42.3542   28.2344   58.8373 H         1 MGI         0.0429
     28 H6         45.1355   33.3151   58.3823 H         1 MGI         0.0402
     29 H7         46.3494   32.3523   57.4735 H         1 MGI         0.0402
     30 H8         46.4507   32.4663   59.2633 H         1 MGI         0.0402
     31 H9         43.1599   32.4567   58.5508 H         1 MGI         0.0413
     32 H10        40.9976   29.3915   61.1270 H         1 MGI         0.0376
     33 H11        39.2557   31.2399   57.1399 H         1 MGI         0.2382
     34 H12        37.5319   28.2328   56.7731 H         1 MGI         0.2436
     35 H13        37.2924   27.4831   59.9916 H         1 MGI         0.0371
     36 H14        39.9410   27.9406   62.6355 H         1 MGI         0.0368
     37 H15        39.0678   26.5718   61.8671 H         1 MGI         0.0368
     38 H16        38.1467   27.9533   62.5526 H         1 MGI         0.0368
@<TRIPOS>BOND
     1    1    2 2  
     2    2    3 1  
     3    2    5 1  
     4    3    4 1  
     5    5    6 ar 
     6    5    9 ar 
     7    6    7 1  
     8    6    8 ar 
     9    8   12 ar 
    10    9   10 1  
    11    9   11 ar 
    12   11   12 ar 
    13   12   13 1  
    14   13   14 1  
    15   14   15 ar 
    16   14   16 ar 
    17   15   21 ar 
    18   16   17 1  
    19   16   18 ar 
    20   18   19 1  
    21   18   20 ar 
    22   20   21 ar 
    23   21   22 1  
    24    4   23 1  
    25    4   24 1  
    26    4   25 1  
    27    7   26 1  
    28    8   27 1  
    29   10   28 1  
    30   10   29 1  
    31   10   30 1  
    32   11   31 1  
    33   15   32 1  
    34   17   33 1  
    35   19   34 1  
    36   20   35 1  
    37   22   36 1  
    38   22   37 1  
    39   22   38 1  
@<TRIPOS>SUBSTRUCTURE
     1 MGI         1

