2za0_ligand
  -I-interpret- 

 38 39  0  0  0  0  0  0  0  0999 V2000
   47.1770   28.2680   58.5000 O   0  0  0  0  0
   46.8420   29.4440   58.5450 C   0  0  0  0  0
   47.8880   30.4530   58.5820 O   0  0  0  0  0
   49.2840   30.1420   58.7540 C   0  0  0  0  0
   45.3720   29.8120   58.5920 C   0  0  0  0  0
   44.4190   28.7610   58.7010 C   0  0  0  0  0
   44.8100   27.4610   58.7590 O   0  0  0  0  0
   43.0680   29.0460   58.7550 C   0  0  0  0  0
   44.8870   31.1850   58.5320 C   0  0  0  0  0
   45.7660   32.4140   58.4040 C   0  0  0  0  0
   43.5170   31.4340   58.5920 C   0  0  0  0  0
   42.5980   30.3930   58.7040 C   0  0  0  0  0
   41.2820   30.7380   58.7630 O   0  0  0  0  0
   40.2470   29.8870   59.1270 C   0  0  0  0  0
   40.2080   29.2260   60.4030 C   0  0  0  0  0
   39.2200   29.6720   58.1950 C   0  0  0  0  0
   39.2590   30.3000   57.0020 O   0  0  0  0  0
   38.1580   28.8120   58.4930 C   0  0  0  0  0
   37.1560   28.5990   57.5650 O   0  0  0  0  0
   38.1150   28.1500   59.7600 C   0  0  0  0  0
   39.1340   28.3590   60.7080 C   0  0  0  0  0
   39.0680   27.6600   62.0280 C   0  0  0  0  0
   49.4261   29.6286   59.7050 H   0  0  0  0  0
   49.6145   29.4980   57.9391 H   0  0  0  0  0
   49.8640   31.0649   58.7476 H   0  0  0  0  0
   44.0357   26.8980   58.8303 H   0  0  0  0  0
   42.3502   28.2299   58.8378 H   0  0  0  0  0
   46.4439   32.4646   59.2560 H   0  0  0  0  0
   46.3436   32.3516   57.4817 H   0  0  0  0  0
   45.1401   33.3061   58.3826 H   0  0  0  0  0
   43.1579   32.4623   58.5505 H   0  0  0  0  0
   41.0019   29.3924   61.1311 H   0  0  0  0  0
   38.4907   30.0487   56.4841 H   0  0  0  0  0
   36.5109   27.9871   57.9270 H   0  0  0  0  0
   37.2879   27.4794   59.9929 H   0  0  0  0  0
   39.9492   27.0298   62.1484 H   0  0  0  0  0
   39.0365   28.3995   62.8281 H   0  0  0  0  0
   38.1704   27.0428   62.0664 H   0  0  0  0  0
  1  2  2  0  0  0
  2  3  1  0  0  0
  2  5  1  0  0  0
  3  4  1  0  0  0
  5  6  4  0  0  0
  5  9  4  0  0  0
  6  7  1  0  0  0
  6  8  4  0  0  0
  8 12  4  0  0  0
  9 10  1  0  0  0
  9 11  4  0  0  0
 11 12  4  0  0  0
 12 13  1  0  0  0
 13 14  1  0  0  0
 14 15  4  0  0  0
 14 16  4  0  0  0
 15 21  4  0  0  0
 16 17  1  0  0  0
 16 18  4  0  0  0
 18 19  1  0  0  0
 18 20  4  0  0  0
 20 21  4  0  0  0
 21 22  1  0  0  0
  4 23  1  0  0  0
  4 24  1  0  0  0
  4 25  1  0  0  0
  7 26  1  0  0  0
  8 27  1  0  0  0
 10 28  1  0  0  0
 10 29  1  0  0  0
 10 30  1  0  0  0
 11 31  1  0  0  0
 15 32  1  0  0  0
 17 33  1  0  0  0
 19 34  1  0  0  0
 20 35  1  0  0  0
 22 36  1  0  0  0
 22 37  1  0  0  0
 22 38  1  0  0  0
M  END
$$$$
