### 
### Created by X-TOOL on Mon Sep 10 21:13:17 2018
### 

@<TRIPOS>MOLECULE
4ibg_ligand
   55    59     1     0     0
SMALL
GAST_HUCK


@<TRIPOS>ATOM
      1 CAA         9.3490   20.8180    3.5640 C.3       1 1D6        -0.0302
      2 CBA         7.8930   20.4450    3.6740 C.ar      1 1D6        -0.0408
      3 CAO         6.9900   21.0040    2.7970 C.ar      1 1D6        -0.0431
      4 CAI         7.4520   19.5580    4.6370 C.ar      1 1D6        -0.0563
      5 CAH         6.1000   19.2300    4.7160 C.ar      1 1D6        -0.0630
      6 CAJ         5.2010   19.8020    3.8350 C.ar      1 1D6        -0.0510
      7 CBD         5.6450   20.6730    2.8650 C.ar      1 1D6         0.0232
      8 CAW         4.6970   21.3200    1.8970 C.2       1 1D6         0.1489
      9 OAC         4.9090   22.4740    1.5130 O.2       1 1D6        -0.3812
     10 CAZ         3.4460   20.6470    1.3650 C.2       1 1D6         0.0879
     11 CAY         3.1890   19.2840    1.1750 C.2       1 1D6         0.1852
     12 OAF         3.9850   18.1710    1.5770 O.3       1 1D6        -0.3224
     13 CAX         1.9840   19.2100    0.5050 C.2       1 1D6         0.2679
     14 OAD         1.3640   18.0330    0.1200 O.2       1 1D6        -0.3703
     15 NBJ         1.5370   20.4580    0.3020 N.am      1 1D6        -0.1990
     16 CBF         0.3410   20.7860   -0.4930 C.ar      1 1D6         0.0665
     17 CAM         0.4160   21.7450   -1.5140 C.ar      1 1D6        -0.0465
     18 CAK        -0.7270   22.0440   -2.2620 C.ar      1 1D6        -0.0715
     19 CBB        -1.9330   21.3750   -1.9750 C.ar      1 1D6        -0.0447
     20 CAS        -3.1740   21.6610   -2.7620 C.3       1 1D6         0.0268
     21 CAV        -3.7550   20.4660   -3.3870 C.2       1 1D6         0.0441
     22 OAE        -4.8270   19.9950   -2.9490 O.co2     1 1D6        -0.5668
     23 OAB        -3.1580   19.9120   -4.3470 O.co2     1 1D6        -0.5668
     24 CAL        -2.0090   20.4220   -0.9780 C.ar      1 1D6        -0.0715
     25 CAN        -0.8640   20.1290   -0.2150 C.ar      1 1D6        -0.0465
     26 CBI         2.3740   21.3630    0.8370 C.3       1 1D6         0.1260
     27 CBE         1.7720   22.3570    1.7880 C.ar      1 1D6        -0.0229
     28 CAQ         1.1680   21.8110    2.9250 C.ar      1 1D6        -0.0352
     29 CBG         0.5990   22.6460    3.8580 C.ar      1 1D6         0.1181
     30 OAT        -0.0560   22.4370    5.0400 O.3       1 1D6        -0.2926
     31 CAR        -0.3950   23.6220    5.5520 C.3       1 1D6         0.1856
     32 OAU         0.0040   24.5940    4.7420 O.3       1 1D6        -0.2945
     33 CBH         0.6360   24.0360    3.6630 C.ar      1 1D6         0.1305
     34 CBC         1.2410   24.5850    2.5460 C.ar      1 1D6         0.0539
     35 CLA         1.2610   26.2990    2.3680 Cl        1 1D6        -0.0838
     36 CAP         1.8200   23.7300    1.5870 C.ar      1 1D6        -0.0619
     37 H1          9.4832   21.5318    2.7379 H         1 1D6         0.0391
     38 H2          9.9452   19.9145    3.3685 H         1 1D6         0.0391
     39 H3          9.6813   21.2800    4.5053 H         1 1D6         0.0391
     40 H4          7.3333   21.7082    2.0478 H         1 1D6         0.0605
     41 H5          8.1580   19.1170    5.3314 H         1 1D6         0.0592
     42 H6          5.7540   18.5282    5.4662 H         1 1D6         0.0611
     43 H7          4.1458   19.5647    3.9078 H         1 1D6         0.0609
     44 H8          4.8388   18.2283    1.1644 H         1 1D6         0.2511
     45 H9          1.3524   22.2502   -1.7214 H         1 1D6         0.0488
     46 H10        -0.6855   22.7827   -3.0542 H         1 1D6         0.0523
     47 H11        -2.9264   22.3834   -3.5537 H         1 1D6         0.0560
     48 H12        -3.9225   22.1000   -2.0860 H         1 1D6         0.0560
     49 H13        -2.9420   19.9048   -0.7854 H         1 1D6         0.0523
     50 H14        -0.9143   19.3983    0.5841 H         1 1D6         0.0488
     51 H15         2.7646   21.9632    0.0020 H         1 1D6         0.0892
     52 H16         1.1484   20.7369    3.0700 H         1 1D6         0.0456
     53 H17         0.0845   23.7458    6.5342 H         1 1D6         0.0971
     54 H18        -1.4877   23.6699    5.6687 H         1 1D6         0.0971
     55 H19         2.2968   24.1391    0.7036 H         1 1D6         0.0445
@<TRIPOS>BOND
     1    1    2 1  
     2    2    3 ar 
     3    2    4 ar 
     4    3    7 ar 
     5    4    5 ar 
     6    5    6 ar 
     7    6    7 ar 
     8    7    8 1  
     9    8    9 2  
    10    8   10 1  
    11   10   11 2  
    12   10   26 1  
    13   11   12 1  
    14   11   13 1  
    15   13   14 2  
    16   13   15 am 
    17   15   16 1  
    18   15   26 1  
    19   16   17 ar 
    20   16   25 ar 
    21   17   18 ar 
    22   18   19 ar 
    23   19   20 1  
    24   19   24 ar 
    25   20   21 1  
    26   21   22 ar 
    27   21   23 ar 
    28   24   25 ar 
    29   26   27 1  
    30   27   28 ar 
    31   27   36 ar 
    32   28   29 ar 
    33   29   30 1  
    34   29   33 ar 
    35   30   31 1  
    36   31   32 1  
    37   32   33 1  
    38   33   34 ar 
    39   34   35 1  
    40   34   36 ar 
    41    1   37 1  
    42    1   38 1  
    43    1   39 1  
    44    3   40 1  
    45    4   41 1  
    46    5   42 1  
    47    6   43 1  
    48   12   44 1  
    49   17   45 1  
    50   18   46 1  
    51   20   47 1  
    52   20   48 1  
    53   24   49 1  
    54   25   50 1  
    55   26   51 1  
    56   28   52 1  
    57   31   53 1  
    58   31   54 1  
    59   36   55 1  
@<TRIPOS>SUBSTRUCTURE
     1 1D6         1

