4ibg_ligand
  -I-interpret- 

 56 60  0  0  0  0  0  0  0  0999 V2000
    9.3490   20.8180    3.5640 C   0  0  0  0  0
    7.8930   20.4450    3.6740 C   0  0  0  0  0
    6.9900   21.0040    2.7970 C   0  0  0  0  0
    7.4520   19.5580    4.6370 C   0  0  0  0  0
    6.1000   19.2300    4.7160 C   0  0  0  0  0
    5.2010   19.8020    3.8350 C   0  0  0  0  0
    5.6450   20.6730    2.8650 C   0  0  0  0  0
    4.6970   21.3200    1.8970 C   0  0  0  0  0
    4.9090   22.4740    1.5130 O   0  0  0  0  0
    3.4460   20.6470    1.3650 C   0  0  0  0  0
    3.1890   19.2840    1.1750 C   0  0  0  0  0
    3.9850   18.1710    1.5770 O   0  0  0  0  0
    1.9840   19.2100    0.5050 C   0  0  0  0  0
    1.3640   18.0330    0.1200 O   0  0  0  0  0
    1.5370   20.4580    0.3020 N   0  0  0  0  0
    0.3410   20.7860   -0.4930 C   0  0  0  0  0
    0.4160   21.7450   -1.5140 C   0  0  0  0  0
   -0.7270   22.0440   -2.2620 C   0  0  0  0  0
   -1.9330   21.3750   -1.9750 C   0  0  0  0  0
   -3.1740   21.6610   -2.7620 C   0  0  0  0  0
   -3.7550   20.4660   -3.3870 C   0  0  0  0  0
   -4.8270   19.9950   -2.9490 O   0  0  0  0  0
   -3.1580   19.9120   -4.3470 O   0  0  0  0  0
   -2.0090   20.4220   -0.9780 C   0  0  0  0  0
   -0.8640   20.1290   -0.2150 C   0  0  0  0  0
    2.3740   21.3630    0.8370 C   0  0  0  0  0
    1.7720   22.3570    1.7880 C   0  0  0  0  0
    1.1680   21.8110    2.9250 C   0  0  0  0  0
    0.5990   22.6460    3.8580 C   0  0  0  0  0
   -0.0560   22.4370    5.0400 O   0  0  0  0  0
   -0.3950   23.6220    5.5520 C   0  0  0  0  0
    0.0040   24.5940    4.7420 O   0  0  0  0  0
    0.6360   24.0360    3.6630 C   0  0  0  0  0
    1.2410   24.5850    2.5460 C   0  0  0  0  0
    1.2610   26.2990    2.3680 Cl  0  0  0  0  0
    1.8200   23.7300    1.5870 C   0  0  0  0  0
    9.7200   20.5416    2.5771 H   0  0  0  0  0
    9.4592   21.8929    3.7070 H   0  0  0  0  0
    9.9172   20.2883    4.3286 H   0  0  0  0  0
    7.3352   21.7121    2.0436 H   0  0  0  0  0
    8.1619   19.1146    5.3352 H   0  0  0  0  0
    5.7521   18.5243    5.4704 H   0  0  0  0  0
    4.1400   19.5634    3.9082 H   0  0  0  0  0
    3.5529   17.3566    1.3092 H   0  0  0  0  0
    1.3576   22.2530   -1.7226 H   0  0  0  0  0
   -0.6852   22.7868   -3.0586 H   0  0  0  0  0
   -2.9051   22.3523   -3.5607 H   0  0  0  0  0
   -3.9152   22.0650   -2.0724 H   0  0  0  0  0
   -2.3586   20.4027   -4.5512 H   0  0  0  0  0
   -2.9472   19.9020   -0.7843 H   0  0  0  0  0
   -0.9145   19.3943    0.5886 H   0  0  0  0  0
    2.7010   22.0389    0.0469 H   0  0  0  0  0
    1.1483   20.7310    3.0708 H   0  0  0  0  0
    0.0835   23.7443    6.5237 H   0  0  0  0  0
   -1.4782   23.6689    5.6640 H   0  0  0  0  0
    2.2994   24.1413    0.6987 H   0  0  0  0  0
  1  2  1  0  0  0
  2  3  4  0  0  0
  2  4  4  0  0  0
  3  7  4  0  0  0
  4  5  4  0  0  0
  5  6  4  0  0  0
  6  7  4  0  0  0
  7  8  1  0  0  0
  8  9  2  0  0  0
  8 10  1  0  0  0
 10 11  2  0  0  0
 10 26  1  0  0  0
 11 12  1  0  0  0
 11 13  1  0  0  0
 13 14  2  0  0  0
 13 15  1  0  0  0
 15 16  1  0  0  0
 15 26  1  0  0  0
 16 17  4  0  0  0
 16 25  4  0  0  0
 17 18  4  0  0  0
 18 19  4  0  0  0
 19 20  1  0  0  0
 19 24  4  0  0  0
 20 21  1  0  0  0
 21 22  2  0  0  0
 21 23  1  0  0  0
 24 25  4  0  0  0
 26 27  1  0  0  0
 27 28  4  0  0  0
 27 36  4  0  0  0
 28 29  4  0  0  0
 29 30  1  0  0  0
 29 33  4  0  0  0
 30 31  1  0  0  0
 31 32  1  0  0  0
 32 33  1  0  0  0
 33 34  4  0  0  0
 34 35  1  0  0  0
 34 36  4  0  0  0
  1 37  1  0  0  0
  1 38  1  0  0  0
  1 39  1  0  0  0
  3 40  1  0  0  0
  4 41  1  0  0  0
  5 42  1  0  0  0
  6 43  1  0  0  0
 12 44  1  0  0  0
 17 45  1  0  0  0
 18 46  1  0  0  0
 20 47  1  0  0  0
 20 48  1  0  0  0
 23 49  1  0  0  0
 24 50  1  0  0  0
 25 51  1  0  0  0
 26 52  1  0  0  0
 28 53  1  0  0  0
 31 54  1  0  0  0
 31 55  1  0  0  0
 36 56  1  0  0  0
M  END
$$$$
