4u8w_ligand
  -I-interpret- 

 75 78  0  0  0  0  0  0  0  0999 V2000
    8.1200   14.3640   14.0400 N   0  0  0  0  0
    8.6160   15.5270   14.4980 C   0  0  0  0  0
    9.9580   15.7910   14.2760 C   0  0  0  0  0
   10.4380   16.9770   14.7700 C   0  0  0  0  0
    9.7590   17.8810   15.5280 C   0  0  0  0  0
    8.4360   17.5950   15.8000 C   0  0  0  0  0
    7.8820   16.4070   15.2720 C   0  0  0  0  0
   10.6360   19.2810   16.1110 S   0  0  0  0  0
   11.7290   19.5890   15.1730 O   0  0  0  0  0
    9.6700   20.3680   16.3650 O   0  0  0  0  0
   11.3090   18.9140   17.5620 N   0  0  0  0  0
   10.3870   18.6230   18.6110 C   0  0  0  0  0
   10.6960   19.3110   19.9550 C   0  0  0  0  0
   10.5800   20.8280   19.7950 C   0  0  0  0  0
    9.7310   18.8150   21.0340 C   0  0  0  0  0
   12.5780   18.2440   17.5410 C   0  0  0  0  0
   13.7160   19.1140   18.0820 C   0  0  0  0  0
   14.8340   18.2810   18.4180 O   0  0  0  0  0
   14.1420   20.2460   17.1460 C   0  0  0  0  0
   15.0230   21.1710   17.8500 N   0  0  0  0  0
   14.7090   22.4150   18.2090 C   0  0  0  0  0
   13.6230   22.9950   18.0240 O   0  0  0  0  0
   15.7350   23.0140   18.8630 O   0  0  0  0  0
   15.5470   24.4120   19.1320 C   0  0  0  0  0
   16.1420   24.6350   20.5260 C   0  0  0  0  0
   17.5590   24.6860   20.3330 O   0  0  0  0  0
   17.8340   25.1790   19.0210 C   0  0  0  0  0
   18.6480   24.2230   18.3390 O   0  0  0  0  0
   18.0170   23.7510   17.1640 C   0  0  0  0  0
   16.8660   24.6830   16.9190 C   0  0  0  0  0
   16.5170   25.2510   18.2830 C   0  0  0  0  0
   14.8670   19.6860   15.9250 C   0  0  0  0  0
   16.6380   21.1150   14.8070 C   0  0  0  0  0
   17.0340   22.1650   13.9850 C   0  0  0  0  0
   16.0780   22.9240   13.3080 C   0  0  0  0  0
   14.7660   22.5390   13.4270 C   0  0  0  0  0
   14.3360   21.5190   14.2620 C   0  0  0  0  0
   15.2950   20.8020   14.9700 C   0  0  0  0  0
   15.8160   24.1230   16.3170 F   0  0  0  0  0
   17.3350   25.6280   16.1030 F   0  0  0  0  0
    8.7274   13.7094   13.5471 H   0  0  0  0  0
    7.1364   14.1365   14.1855 H   0  0  0  0  0
   10.5985   15.0928   13.7371 H   0  0  0  0  0
   11.4728   17.2216   14.5302 H   0  0  0  0  0
    7.8330   18.2697   16.4077 H   0  0  0  0  0
    6.8378   16.1758   15.4826 H   0  0  0  0  0
   10.4380   17.5485   18.7872 H   0  0  0  0  0
    9.4130   18.9885   18.2857 H   0  0  0  0  0
   11.7129   19.0632   20.2594 H   0  0  0  0  0
   11.2909   21.1681   19.0420 H   0  0  0  0  0
    9.5675   21.0827   19.4819 H   0  0  0  0  0
   10.7993   21.3103   20.7476 H   0  0  0  0  0
    8.7077   19.0478   20.7393 H   0  0  0  0  0
    9.8407   17.7368   21.1499 H   0  0  0  0  0
    9.9596   19.3084   21.9787 H   0  0  0  0  0
   12.8090   17.9981   16.5045 H   0  0  0  0  0
   12.5007   17.3617   18.1764 H   0  0  0  0  0
   13.3324   19.6120   18.9725 H   0  0  0  0  0
   15.5475   18.8264   18.7572 H   0  0  0  0  0
   13.2474   20.7745   16.8165 H   0  0  0  0  0
   15.9574   20.8377   18.0872 H   0  0  0  0  0
   14.4993   24.6694   18.9766 H   0  0  0  0  0
   15.8609   23.8366   21.2127 H   0  0  0  0  0
   15.7671   25.5532   20.9781 H   0  0  0  0  0
   18.3298   26.1486   19.0682 H   0  0  0  0  0
   17.6774   22.7219   17.2810 H   0  0  0  0  0
   18.7062   23.7397   16.3196 H   0  0  0  0  0
   16.0442   26.2227   18.1405 H   0  0  0  0  0
   14.1878   19.0182   15.3950 H   0  0  0  0  0
   15.7590   19.1588   16.2635 H   0  0  0  0  0
   17.3932   20.5292   15.3310 H   0  0  0  0  0
   18.0930   22.3955   13.8693 H   0  0  0  0  0
   16.3623   23.7886   12.7083 H   0  0  0  0  0
   14.0198   23.0649   12.8314 H   0  0  0  0  0
   13.2759   21.2855   14.3609 H   0  0  0  0  0
  2  1  1  0  0  0
  3  2  4  0  0  0
  7  2  4  0  0  0
  4  3  4  0  0  0
  5  4  4  0  0  0
  5  6  4  0  0  0
  8  5  1  0  0  0
  6  7  4  0  0  0
  8  9  2  0  0  0
  8 10  2  0  0  0
 11  8  1  0  0  0
 11 12  1  0  0  0
 16 11  1  0  0  0
 12 13  1  0  0  0
 13 14  1  0  0  0
 13 15  1  0  0  0
 17 16  1  0  0  0
 17 18  1  0  0  0
 19 17  1  0  0  0
 19 20  1  0  0  0
 32 19  1  0  0  0
 20 21  1  0  0  0
 21 22  2  0  0  0
 21 23  1  0  0  0
 23 24  1  0  0  0
 24 25  1  0  0  0
 24 31  1  0  0  0
 25 26  1  0  0  0
 27 26  1  0  0  0
 27 28  1  0  0  0
 31 27  1  0  0  0
 29 28  1  0  0  0
 30 29  1  0  0  0
 31 30  1  0  0  0
 30 39  1  0  0  0
 30 40  1  0  0  0
 38 32  1  0  0  0
 33 34  4  0  0  0
 33 38  4  0  0  0
 34 35  4  0  0  0
 35 36  4  0  0  0
 36 37  4  0  0  0
 37 38  4  0  0  0
  1 41  1  0  0  0
  1 42  1  0  0  0
  3 43  1  0  0  0
  4 44  1  0  0  0
  6 45  1  0  0  0
  7 46  1  0  0  0
 12 47  1  0  0  0
 12 48  1  0  0  0
 13 49  1  0  0  0
 14 50  1  0  0  0
 14 51  1  0  0  0
 14 52  1  0  0  0
 15 53  1  0  0  0
 15 54  1  0  0  0
 15 55  1  0  0  0
 16 56  1  0  0  0
 16 57  1  0  0  0
 17 58  1  0  0  0
 18 59  1  0  0  0
 19 60  1  0  0  0
 20 61  1  0  0  0
 24 62  1  0  0  0
 25 63  1  0  0  0
 25 64  1  0  0  0
 27 65  1  0  0  0
 29 66  1  0  0  0
 29 67  1  0  0  0
 31 68  1  0  0  0
 32 69  1  0  0  0
 32 70  1  0  0  0
 33 71  1  0  0  0
 34 72  1  0  0  0
 35 73  1  0  0  0
 36 74  1  0  0  0
 37 75  1  0  0  0
M  END
$$$$
