### 
### Created by X-TOOL on Mon Sep 10 21:13:16 2018
### 

@<TRIPOS>MOLECULE
4u8w_ligand
   75    78     1     0     0
SMALL
GAST_HUCK


@<TRIPOS>ATOM
      1 N1          8.1200   14.3640   14.0400 N.pl3     1 G10        -0.3369
      2 C2          8.6160   15.5270   14.4980 C.ar      1 G10         0.0353
      3 C3          9.9580   15.7910   14.2760 C.ar      1 G10        -0.0429
      4 C4         10.4380   16.9770   14.7700 C.ar      1 G10        -0.0471
      5 C5          9.7590   17.8810   15.5280 C.ar      1 G10         0.0949
      6 C6          8.4360   17.5950   15.8000 C.ar      1 G10        -0.0471
      7 C7          7.8820   16.4070   15.2720 C.ar      1 G10        -0.0429
      8 S8         10.6360   19.2810   16.1110 S.o2      1 G10         0.0648
      9 O9         11.7290   19.5890   15.1730 O.2       1 G10        -0.1518
     10 O10         9.6700   20.3680   16.3650 O.2       1 G10        -0.1518
     11 N11        11.3090   18.9140   17.5620 N.am      1 G10        -0.2327
     12 C12        10.3870   18.6230   18.6110 C.3       1 G10         0.0319
     13 C13        10.6960   19.3110   19.9550 C.3       1 G10        -0.0296
     14 C14        10.5800   20.8280   19.7950 C.3       1 G10        -0.0612
     15 C15         9.7310   18.8150   21.0340 C.3       1 G10        -0.0612
     16 C16        12.5780   18.2440   17.5410 C.3       1 G10         0.0578
     17 C17        13.7160   19.1140   18.0820 C.3       1 G10         0.0967
     18 O18        14.8340   18.2810   18.4180 O.3       1 G10        -0.3877
     19 C19        14.1420   20.2460   17.1460 C.3       1 G10         0.0807
     20 N20        15.0230   21.1710   17.8500 N.am      1 G10        -0.2550
     21 C21        14.7090   22.4150   18.2090 C.2       1 G10         0.3203
     22 O22        13.6230   22.9950   18.0240 O.2       1 G10        -0.3775
     23 O23        15.7350   23.0140   18.8630 O.3       1 G10        -0.2576
     24 C24        15.5470   24.4120   19.1320 C.3       1 G10         0.1244
     25 C25        16.1420   24.6350   20.5260 C.3       1 G10         0.0818
     26 O26        17.5590   24.6860   20.3330 O.3       1 G10        -0.3478
     27 C27        17.8340   25.1790   19.0210 C.3       1 G10         0.1706
     28 O28        18.6480   24.2230   18.3390 O.3       1 G10        -0.3448
     29 C29        18.0170   23.7510   17.1640 C.3       1 G10         0.1144
     30 C30        16.8660   24.6830   16.9190 C.3       1 G10         0.2819
     31 C31        16.5170   25.2510   18.2830 C.3       1 G10         0.1080
     32 C32        14.8670   19.6860   15.9250 C.3       1 G10         0.0064
     33 C33        16.6380   21.1150   14.8070 C.ar      1 G10        -0.0603
     34 C34        17.0340   22.1650   13.9850 C.ar      1 G10        -0.0686
     35 C35        16.0780   22.9240   13.3080 C.ar      1 G10        -0.0687
     36 C36        14.7660   22.5390   13.4270 C.ar      1 G10        -0.0686
     37 C37        14.3360   21.5190   14.2620 C.ar      1 G10        -0.0603
     38 C38        15.2950   20.8020   14.9700 C.ar      1 G10        -0.0408
     39 F39        15.8160   24.1230   16.3170 F         1 G10        -0.2026
     40 F40        17.3350   25.6280   16.1030 F         1 G10        -0.2026
     41 H           8.7088   13.7432   13.4666 H         1 G10         0.1719
     42 H           7.1513   14.0940   14.2626 H         1 G10         0.1719
     43 H          10.5950   15.0967   13.7401 H         1 G10         0.0515
     44 H          11.4671   17.2202   14.5315 H         1 G10         0.0602
     45 H           7.8363   18.2659   16.4044 H         1 G10         0.0602
     46 H           6.8436   16.1771   15.4814 H         1 G10         0.0515
     47 H          10.3885   17.5354   18.7755 H         1 G10         0.0480
     48 H           9.3863   18.9432   18.2852 H         1 G10         0.0480
     49 H          11.7241   19.0616   20.2563 H         1 G10         0.0311
     50 H          10.8011   21.3160   20.7557 H         1 G10         0.0233
     51 H           9.5585   21.0864   19.4791 H         1 G10         0.0233
     52 H          11.2970   21.1725   19.0353 H         1 G10         0.0233
     53 H           9.8259   17.7240   21.1373 H         1 G10         0.0233
     54 H           8.6995   19.0678   20.7477 H         1 G10         0.0233
     55 H           9.9739   19.2966   21.9927 H         1 G10         0.0233
     56 H          12.8115   17.9654   16.5028 H         1 G10         0.0504
     57 H          12.5064   17.3356   18.1572 H         1 G10         0.0504
     58 H          13.3542   19.5838   19.0085 H         1 G10         0.0634
     59 H          15.1283   17.8195   17.6415 H         1 G10         0.2100
     60 H          13.2448   20.7878   16.8120 H         1 G10         0.0604
     61 H          15.9390   20.8442   18.0826 H         1 G10         0.1873
     62 H          14.4965   24.7218   19.0296 H         1 G10         0.0677
     63 H          15.8749   23.8041   21.1955 H         1 G10         0.0590
     64 H          15.7778   25.5812   20.9526 H         1 G10         0.0590
     65 H          18.3256   26.1622   19.0616 H         1 G10         0.0915
     66 H          17.6537   22.7231   17.3101 H         1 G10         0.0620
     67 H          18.7174   23.7754   16.3162 H         1 G10         0.0620
     68 H          16.1395   26.2795   18.1851 H         1 G10         0.0439
     69 H          14.1933   18.9983   15.3928 H         1 G10         0.0449
     70 H          15.7606   19.1385   16.2592 H         1 G10         0.0449
     71 H          17.3891   20.5324   15.3281 H         1 G10         0.0557
     72 H          18.0872   22.3943   13.8700 H         1 G10         0.0599
     73 H          16.3607   23.7839   12.7116 H         1 G10         0.0559
     74 H          14.0239   23.0620   12.8346 H         1 G10         0.0599
     75 H          13.2817   21.2867   14.3604 H         1 G10         0.0557
@<TRIPOS>BOND
     1    2    1 1  
     2    3    2 ar 
     3    7    2 ar 
     4    4    3 ar 
     5    5    4 ar 
     6    5    6 ar 
     7    8    5 1  
     8    6    7 ar 
     9    8    9 2  
    10    8   10 2  
    11   11    8 am 
    12   11   12 1  
    13   16   11 1  
    14   12   13 1  
    15   13   14 1  
    16   13   15 1  
    17   17   16 1  
    18   17   18 1  
    19   19   17 1  
    20   19   20 1  
    21   32   19 1  
    22   20   21 am 
    23   21   22 2  
    24   21   23 1  
    25   23   24 1  
    26   24   25 1  
    27   24   31 1  
    28   25   26 1  
    29   27   26 1  
    30   27   28 1  
    31   31   27 1  
    32   29   28 1  
    33   30   29 1  
    34   31   30 1  
    35   30   39 1  
    36   30   40 1  
    37   38   32 1  
    38   33   34 ar 
    39   33   38 ar 
    40   34   35 ar 
    41   35   36 ar 
    42   36   37 ar 
    43   37   38 ar 
    44    1   41 1  
    45    1   42 1  
    46    3   43 1  
    47    4   44 1  
    48    6   45 1  
    49    7   46 1  
    50   12   47 1  
    51   12   48 1  
    52   13   49 1  
    53   14   50 1  
    54   14   51 1  
    55   14   52 1  
    56   15   53 1  
    57   15   54 1  
    58   15   55 1  
    59   16   56 1  
    60   16   57 1  
    61   17   58 1  
    62   18   59 1  
    63   19   60 1  
    64   20   61 1  
    65   24   62 1  
    66   25   63 1  
    67   25   64 1  
    68   27   65 1  
    69   29   66 1  
    70   29   67 1  
    71   31   68 1  
    72   32   69 1  
    73   32   70 1  
    74   33   71 1  
    75   34   72 1  
    76   35   73 1  
    77   36   74 1  
    78   37   75 1  
@<TRIPOS>SUBSTRUCTURE
     1 G10         1

