4daf_ligand
     RDKit          3D

 27 28  0  0  0  0  0  0  0  0999 V2000
   58.5936   30.1210   42.1304 O   0  0  0  0  0  0  0  0  0  0  0  0
   59.9862   30.3640   42.1131 C   0  0  0  0  0  0  0  0  0  0  0  0
   60.6743   30.1466   40.9808 N   0  0  0  0  0  0  0  0  0  0  0  0
   61.9802   30.4028   40.8824 C   0  0  0  0  0  0  0  0  0  0  0  0
   62.6763   30.1683   39.6527 N   0  0  0  0  0  0  0  0  0  0  0  0
   62.6564   30.8642   41.9416 N   0  0  0  0  0  0  0  0  0  0  0  0
   62.0437   31.1021   43.1136 C   0  0  0  0  0  0  0  0  0  0  0  0
   60.6786   30.8577   43.2318 C   0  0  0  0  0  0  0  0  0  0  0  0
   60.0912   31.1309   44.5104 C   0  0  0  0  0  0  0  0  0  0  0  0
   58.7400   30.8842   44.7632 O   0  0  0  0  0  0  0  0  0  0  0  0
   62.7495   31.5724   44.1177 N   0  0  0  0  0  0  0  0  0  0  0  0
   62.2125   31.8288   45.2987 N   0  0  0  0  0  0  0  0  0  0  0  0
   60.9180   31.6251   45.5271 C   0  0  0  0  0  0  0  0  0  0  0  0
   60.3423   31.9152   46.9243 C   0  0  1  0  0  0  0  0  0  0  0  0
   59.7859   33.3272   46.9642 C   0  0  0  0  0  0  0  0  0  0  0  0
   59.2329   31.0400   47.4014 C   0  0  0  0  0  0  0  0  0  0  0  0
   59.3227   29.7923   47.2973 O   0  0  0  0  0  0  0  0  0  0  0  0
   58.1592   31.5393   47.7325 O   0  0  0  0  0  0  0  0  0  0  0  0
   60.1826   29.7732   40.1690 H   0  0  0  0  0  0  0  0  0  0  0  0
   63.6784   30.3483   39.5915 H   0  0  0  0  0  0  0  0  0  0  0  0
   62.1698   29.8214   38.8381 H   0  0  0  0  0  0  0  0  0  0  0  0
   58.5278   31.1589   45.6583 H   0  0  0  0  0  0  0  0  0  0  0  0
   61.1970   31.7357   47.5766 H   0  0  0  0  0  0  0  0  0  0  0  0
   60.0925   33.8627   46.0657 H   0  0  0  0  0  0  0  0  0  0  0  0
   58.6976   33.2863   47.0107 H   0  0  0  0  0  0  0  0  0  0  0  0
   60.1694   33.8427   47.8447 H   0  0  0  0  0  0  0  0  0  0  0  0
   59.9798   29.4671   47.9170 H   0  0  0  0  0  0  0  0  0  0  0  0
  1  2  2  0
  2  3  1  0
  2  8  1  0
  3  4  1  0
  4  5  1  0
  4  6  2  0
  6  7  1  0
  7  8  2  0
  7 11  1  0
  8  9  1  0
  9 10  1  0
  9 13  2  0
 11 12  2  0
 12 13  1  0
 13 14  1  0
 14 15  1  0
 14 16  1  0
 16 17  1  0
 16 18  2  0
  3 19  1  0
  5 20  1  0
  5 21  1  0
 10 22  1  0
 14 23  1  1
 15 24  1  0
 15 25  1  0
 15 26  1  0
 17 27  1  0
M  END
