1xjd_ligand
  -I-interpret- 

 62 69  0  0  0  0  0  0  0  0999 V2000
   53.2800   10.3980    0.5730 C   0  0  0  0  0
   52.0120    9.9930   -0.0130 C   0  0  0  0  0
   51.5710    8.5630    0.1450 C   0  0  0  0  0
   52.3770    7.6450    0.8900 C   0  0  0  0  0
   53.6820    8.0440    1.4720 C   0  0  0  0  0
   54.6780    7.3800    2.2830 N   0  0  0  0  0
   55.7590    8.3090    2.6030 C   0  0  0  0  0
   56.9750    8.1520    3.3430 C   0  0  0  0  0
   57.5420    6.9930    4.0440 N   0  0  0  0  0
   58.7550    7.3650    4.5900 C   0  0  0  0  0
   59.7050    6.5680    5.4310 C   0  0  0  0  0
   60.9180    7.2230    5.9170 C   0  0  0  0  0
   61.1770    8.6650    5.6340 C   0  0  0  0  0
   60.2410    9.4260    4.8400 C   0  0  0  0  0
   58.9920    8.8330    4.3300 C   0  0  0  0  0
   57.9310    9.2920    3.5450 C   0  0  0  0  0
   57.4880   10.6470    2.8870 C   0  0  0  0  0
   58.2130   11.9420    2.9110 C   0  0  0  0  0
   57.4270   12.7420    2.2290 N   0  0  0  0  0
   56.2060   12.2050    1.7000 C   0  0  0  0  0
   56.3310   10.7860    2.2000 C   0  0  0  0  0
   55.3870    9.6420    1.9860 C   0  0  0  0  0
   54.1290    9.4820    1.3540 C   0  0  0  0  0
   54.7590    5.8750    2.7560 C   0  0  0  0  0
   53.9670    5.7890    4.2190 C   0  0  0  0  0
   54.7120    4.6950    5.0510 C   0  0  0  0  0
   56.2540    5.1360    5.3000 C   0  0  0  0  0
   57.0430    5.5230    3.9380 C   0  0  0  0  0
   56.1260    5.3900    2.8110 O   0  0  0  0  0
   59.2770   12.2160    3.4240 O   0  0  0  0  0
   54.0870    4.4110    6.4850 N   0  3  0  0  0
   54.8260    3.3000    7.2330 C   0  0  0  0  0
   54.0050    7.1110    4.9390 O   0  0  0  0  0
   52.7830    7.8360    4.8940 C   0  0  0  0  0
   54.1190    4.7910    1.8590 C   0  0  0  0  0
   53.6169   11.4244    0.4279 H   0  0  0  0  0
   51.3947   10.7096   -0.5548 H   0  0  0  0  0
   50.6382    8.2267   -0.3077 H   0  0  0  0  0
   52.0224    6.6244    1.0339 H   0  0  0  0  0
   59.4968    5.5261    5.6743 H   0  0  0  0  0
   61.6436    6.6500    6.4943 H   0  0  0  0  0
   62.0735    9.1445    6.0269 H   0  0  0  0  0
   60.4646   10.4681    4.6116 H   0  0  0  0  0
   57.6775   13.7193    2.0791 H   0  0  0  0  0
   56.0926   12.3021    0.6203 H   0  0  0  0  0
   55.3017   12.7245    2.0169 H   0  0  0  0  0
   52.9150    5.5416    4.0768 H   0  0  0  0  0
   54.6201    3.7885    4.4528 H   0  0  0  0  0
   56.7698    4.2864    5.7476 H   0  0  0  0  0
   56.2432    6.0215    5.9355 H   0  0  0  0  0
   57.8973    4.8620    3.7918 H   0  0  0  0  0
   53.1197    4.1147    6.3548 H   0  0  0  0  0
   54.1605    5.2659    7.0364 H   0  0  0  0  0
   54.7751    2.3779    6.6541 H   0  0  0  0  0
   55.8685    3.5873    7.3702 H   0  0  0  0  0
   54.3592    3.1460    8.2059 H   0  0  0  0  0
   52.5237    8.0444    3.8560 H   0  0  0  0  0
   51.9931    7.2432    5.3552 H   0  0  0  0  0
   52.8986    8.7744    5.4364 H   0  0  0  0  0
   54.2519    3.8132    2.3219 H   0  0  0  0  0
   53.0551    4.9983    1.7437 H   0  0  0  0  0
   54.6003    4.7998    0.8810 H   0  0  0  0  0
  1  2  4  0  0  0
  1 23  4  0  0  0
  2  3  4  0  0  0
  3  4  4  0  0  0
  4  5  4  0  0  0
  5  6  4  0  0  0
  5 23  4  0  0  0
  6  7  4  0  0  0
  6 24  1  0  0  0
  7  8  4  0  0  0
  7 22  4  0  0  0
  8  9  4  0  0  0
  8 16  4  0  0  0
  9 10  4  0  0  0
  9 28  1  0  0  0
 10 11  4  0  0  0
 10 15  4  0  0  0
 11 12  4  0  0  0
 12 13  4  0  0  0
 13 14  4  0  0  0
 14 15  4  0  0  0
 15 16  4  0  0  0
 16 17  4  0  0  0
 17 18  1  0  0  0
 17 21  4  0  0  0
 18 19  1  0  0  0
 18 30  2  0  0  0
 19 20  1  0  0  0
 20 21  1  0  0  0
 21 22  4  0  0  0
 22 23  4  0  0  0
 24 25  1  0  0  0
 24 29  1  0  0  0
 24 35  1  0  0  0
 25 26  1  0  0  0
 25 33  1  0  0  0
 26 27  1  0  0  0
 26 31  1  0  0  0
 27 28  1  0  0  0
 28 29  1  0  0  0
 31 32  1  0  0  0
 33 34  1  0  0  0
  1 36  1  0  0  0
  2 37  1  0  0  0
  3 38  1  0  0  0
  4 39  1  0  0  0
 11 40  1  0  0  0
 12 41  1  0  0  0
 13 42  1  0  0  0
 14 43  1  0  0  0
 19 44  1  0  0  0
 20 45  1  0  0  0
 20 46  1  0  0  0
 25 47  1  0  0  0
 26 48  1  0  0  0
 27 49  1  0  0  0
 27 50  1  0  0  0
 28 51  1  0  0  0
 31 52  1  0  0  0
 31 53  1  0  0  0
 32 54  1  0  0  0
 32 55  1  0  0  0
 32 56  1  0  0  0
 34 57  1  0  0  0
 34 58  1  0  0  0
 34 59  1  0  0  0
 35 60  1  0  0  0
 35 61  1  0  0  0
 35 62  1  0  0  0
M  END
$$$$
