### 
### Created by X-TOOL on Mon Sep 10 21:12:51 2018
### 

@<TRIPOS>MOLECULE
1xjd_ligand
   62    69     1     0     0
SMALL
GAST_HUCK


@<TRIPOS>ATOM
      1 C1         53.2800   10.3980    0.5730 C.ar      1 STU        -0.0696
      2 C2         52.0120    9.9930   -0.0130 C.ar      1 STU        -0.0759
      3 C3         51.5710    8.5630    0.1450 C.ar      1 STU        -0.0739
      4 C4         52.3770    7.6450    0.8900 C.ar      1 STU        -0.0408
      5 C5         53.6820    8.0440    1.4720 C.ar      1 STU         0.0695
      6 N6         54.6780    7.3800    2.2830 N.pl3     1 STU        -0.2292
      7 C7         55.7590    8.3090    2.6030 C.ar      1 STU         0.0978
      8 C8         56.9750    8.1520    3.3430 C.ar      1 STU         0.0952
      9 N9         57.5420    6.9930    4.0440 N.pl3     1 STU        -0.2376
     10 C10        58.7550    7.3650    4.5900 C.ar      1 STU         0.0681
     11 C11        59.7050    6.5680    5.4310 C.ar      1 STU        -0.0404
     12 C12        60.9180    7.2230    5.9170 C.ar      1 STU        -0.0732
     13 C13        61.1770    8.6650    5.6340 C.ar      1 STU        -0.0750
     14 C14        60.2410    9.4260    4.8400 C.ar      1 STU        -0.0685
     15 C15        58.9920    8.8330    4.3300 C.ar      1 STU        -0.0072
     16 C16        57.9310    9.2920    3.5450 C.ar      1 STU        -0.0018
     17 C17        57.4880   10.6470    2.8870 C.ar      1 STU         0.0320
     18 C18        58.2130   11.9420    2.9110 C.2       1 STU         0.1871
     19 N19        57.4270   12.7420    2.2290 N.am      1 STU        -0.2790
     20 C20        56.2060   12.2050    1.7000 C.3       1 STU         0.0603
     21 C21        56.3310   10.7860    2.2000 C.ar      1 STU        -0.0168
     22 C22        55.3870    9.6420    1.9860 C.ar      1 STU         0.0011
     23 C23        54.1290    9.4820    1.3540 C.ar      1 STU        -0.0075
     24 C24        54.7590    5.8750    2.7560 C.3       1 STU         0.2020
     25 C25        53.9670    5.7890    4.2190 C.3       1 STU         0.1556
     26 C26        54.7120    4.6950    5.0510 C.3       1 STU         0.0141
     27 C27        56.2540    5.1360    5.3000 C.3       1 STU         0.0455
     28 C28        57.0430    5.5230    3.9380 C.3       1 STU         0.1668
     29 O29        56.1260    5.3900    2.8110 O.3       1 STU        -0.3149
     30 O30        59.2770   12.2160    3.4240 O.2       1 STU        -0.3964
     31 N31        54.0870    4.4110    6.4850 N.4       1 STU         0.2291
     32 C32        54.8260    3.3000    7.2330 C.3       1 STU        -0.0445
     33 O33        54.0050    7.1110    4.9390 O.3       1 STU        -0.3686
     34 C34        52.7830    7.8360    4.8940 C.3       1 STU         0.0373
     35 C35        54.1190    4.7910    1.8590 C.3       1 STU        -0.0059
     36 H1         53.6150   11.4188    0.4287 H         1 STU         0.0566
     37 H2         51.3981   10.7057   -0.5518 H         1 STU         0.0516
     38 H3         50.6434    8.2286   -0.3053 H         1 STU         0.0561
     39 H4         52.0244    6.6300    1.0331 H         1 STU         0.0538
     40 H5         59.4980    5.5318    5.6729 H         1 STU         0.0539
     41 H6         61.6396    6.6531    6.4911 H         1 STU         0.0568
     42 H7         62.0686    9.1418    6.0248 H         1 STU         0.0516
     43 H8         60.4634   10.4623    4.6128 H         1 STU         0.0576
     44 H9         57.6726   13.7002    2.0820 H         1 STU         0.1863
     45 H10        56.1767   12.2534    0.6015 H         1 STU         0.0679
     46 H11        55.3207   12.7106    2.1131 H         1 STU         0.0679
     47 H12        52.9187    5.4956    4.0611 H         1 STU         0.0710
     48 H13        54.6895    3.7606    4.4711 H         1 STU         0.0880
     49 H14        56.7817    4.3002    5.7827 H         1 STU         0.0372
     50 H15        56.2628    6.0100    5.9679 H         1 STU         0.0372
     51 H16        57.9017    4.8498    3.7987 H         1 STU         0.0933
     52 H17        53.1234    4.1384    6.3700 H         1 STU         0.2014
     53 H18        54.1341    5.2564    7.0320 H         1 STU         0.2014
     54 H19        54.3558    3.1436    8.2151 H         1 STU         0.0777
     55 H20        55.8783    3.5887    7.3721 H         1 STU         0.0777
     56 H21        54.7753    2.3687    6.6498 H         1 STU         0.0777
     57 H22        52.8984    8.7833    5.4411 H         1 STU         0.0524
     58 H23        51.9850    7.2388    5.3592 H         1 STU         0.0524
     59 H24        52.5202    8.0470    3.8469 H         1 STU         0.0524
     60 H25        54.2582    3.8029    2.3220 H         1 STU         0.0284
     61 H26        54.5994    4.8032    0.8696 H         1 STU         0.0284
     62 H27        53.0440    4.9953    1.7472 H         1 STU         0.0284
@<TRIPOS>BOND
     1    1    2 ar 
     2    1   23 ar 
     3    2    3 ar 
     4    3    4 ar 
     5    4    5 ar 
     6    5    6 1  
     7    5   23 ar 
     8    6    7 1  
     9    6   24 1  
    10    7    8 ar 
    11    7   22 ar 
    12    8    9 1  
    13    8   16 ar 
    14    9   10 1  
    15    9   28 1  
    16   10   11 ar 
    17   10   15 ar 
    18   11   12 ar 
    19   12   13 ar 
    20   13   14 ar 
    21   14   15 ar 
    22   15   16 1  
    23   16   17 ar 
    24   17   18 1  
    25   17   21 ar 
    26   18   19 am 
    27   18   30 2  
    28   19   20 1  
    29   20   21 1  
    30   21   22 ar 
    31   22   23 1  
    32   24   25 1  
    33   24   29 1  
    34   24   35 1  
    35   25   26 1  
    36   25   33 1  
    37   26   27 1  
    38   26   31 1  
    39   27   28 1  
    40   28   29 1  
    41   31   32 1  
    42   33   34 1  
    43    1   36 1  
    44    2   37 1  
    45    3   38 1  
    46    4   39 1  
    47   11   40 1  
    48   12   41 1  
    49   13   42 1  
    50   14   43 1  
    51   19   44 1  
    52   20   45 1  
    53   20   46 1  
    54   25   47 1  
    55   26   48 1  
    56   27   49 1  
    57   27   50 1  
    58   28   51 1  
    59   31   52 1  
    60   31   53 1  
    61   32   54 1  
    62   32   55 1  
    63   32   56 1  
    64   34   57 1  
    65   34   58 1  
    66   34   59 1  
    67   35   60 1  
    68   35   61 1  
    69   35   62 1  
@<TRIPOS>SUBSTRUCTURE
     1 STU         1

