### 
### Created by X-TOOL on Mon Sep 10 21:13:04 2018
### 

@<TRIPOS>MOLECULE
3juk_ligand
   58    60     1     0     0
SMALL
GAST_HUCK


@<TRIPOS>ATOM
      1 N1         59.8830   37.3130   55.8530 N.am      1 UPG        -0.1592
      2 C2         60.0270   35.9090   55.8450 C.2       1 UPG         0.3328
      3 N3         58.9470   35.1800   55.7630 N.am      1 UPG        -0.1865
      4 C4         57.7510   35.7550   55.6910 C.2       1 UPG         0.1822
      5 C5         57.5660   37.1390   55.6940 C.2       1 UPG         0.0062
      6 C6         58.6930   37.9180   55.7790 C.2       1 UPG         0.0591
      7 O2         61.1240   35.3810   55.9130 O.2       1 UPG        -0.3815
      8 O4         56.8260   35.0180   55.6260 O.2       1 UPG        -0.4124
      9 C1C        61.1090   38.0900   55.9560 C.3       1 UPG         0.2059
     10 C2C        61.4600   38.9410   54.7670 C.3       1 UPG         0.1387
     11 O2C        62.0420   38.2270   53.6990 O.3       1 UPG        -0.3836
     12 C3C        62.2830   40.0280   55.4130 C.3       1 UPG         0.1149
     13 C4C        61.6470   40.1290   56.7700 C.3       1 UPG         0.1189
     14 O4C        60.9720   38.9540   57.0280 O.3       1 UPG        -0.3363
     15 O3C        63.6250   39.7020   55.7030 O.3       1 UPG        -0.3864
     16 C5C        60.7940   41.3470   56.9160 C.3       1 UPG         0.1128
     17 O5C        59.7890   41.2690   55.9860 O.3       1 UPG        -0.2476
     18 PA         59.1270   42.4940   55.4580 P.3       1 UPG         0.2972
     19 O1A        58.1110   42.1740   54.6250 O.co2     1 UPG        -0.6127
     20 O2A        60.0190   43.2530   54.7040 O.co2     1 UPG        -0.6127
     21 O3A        58.5840   43.2500   56.7260 O.3       1 UPG        -0.1318
     22 PB         58.3510   44.7670   56.9630 P.3       1 UPG         0.2997
     23 O1B        59.4360   45.4950   56.4440 O.co2     1 UPG        -0.6127
     24 O2B        57.1150   45.1620   56.4230 O.co2     1 UPG        -0.6127
     25 O3B        58.4190   44.9440   58.5010 O.3       1 UPG        -0.2154
     26 C1'        59.4460   44.5490   59.3830 C.3       1 UPG         0.2226
     27 C2'        58.9140   44.5760   60.8140 C.3       1 UPG         0.1392
     28 C3'        58.5940   46.0040   61.2670 C.3       1 UPG         0.1144
     29 C4'        59.8270   46.8920   61.0280 C.3       1 UPG         0.1119
     30 C5'        60.3030   46.7340   59.5660 C.3       1 UPG         0.1133
     31 C6'        61.5400   47.5690   59.3110 C.3       1 UPG         0.0730
     32 O2'        57.7850   43.7550   60.8160 O.3       1 UPG        -0.3837
     33 O3'        58.1260   46.0440   62.5680 O.3       1 UPG        -0.3864
     34 O4'        59.6920   48.2650   61.3650 O.3       1 UPG        -0.3865
     35 O5'        60.5830   45.3810   59.3070 O.3       1 UPG        -0.3364
     36 O6'        62.3290   47.0600   58.3380 O.3       1 UPG        -0.3924
     37 H1         59.0202   34.1827   55.7543 H         1 UPG         0.2259
     38 H2         56.5724   37.5805   55.6317 H         1 UPG         0.0258
     39 H3         58.6195   39.0045   55.7860 H         1 UPG         0.1178
     40 H4         61.9397   37.3924   56.1383 H         1 UPG         0.0997
     41 H5         60.5421   39.3938   54.3640 H         1 UPG         0.0676
     42 H6         62.2359   38.8259   52.9875 H         1 UPG         0.2101
     43 H7         62.2286   40.9597   54.8309 H         1 UPG         0.0648
     44 H8         62.4545   40.2169   57.5117 H         1 UPG         0.0651
     45 H9         64.1114   39.6166   54.8915 H         1 UPG         0.2100
     46 H10        61.3974   42.2497   56.7400 H         1 UPG         0.0648
     47 H11        60.3650   41.3843   57.9282 H         1 UPG         0.0648
     48 H12        59.7474   43.5224   59.1277 H         1 UPG         0.0999
     49 H13        59.6699   44.1590   61.4957 H         1 UPG         0.0675
     50 H14        57.7850   46.3850   60.6264 H         1 UPG         0.0648
     51 H15        60.6218   46.4964   61.6774 H         1 UPG         0.0647
     52 H16        59.5016   47.0711   58.8922 H         1 UPG         0.0647
     53 H17        62.1233   47.6250   60.2419 H         1 UPG         0.0584
     54 H18        61.2253   48.5803   59.0140 H         1 UPG         0.0584
     55 H19        57.1334   44.1131   60.2247 H         1 UPG         0.2101
     56 H20        57.3679   45.4772   62.6482 H         1 UPG         0.2100
     57 H21        60.5316   48.6983   61.2659 H         1 UPG         0.2100
     58 H22        63.0867   47.6210   58.2204 H         1 UPG         0.2095
@<TRIPOS>BOND
     1    1    2 am 
     2    1    6 1  
     3    1    9 1  
     4    2    3 am 
     5    2    7 2  
     6    3    4 am 
     7    4    5 1  
     8    4    8 2  
     9    5    6 2  
    10    9   10 1  
    11    9   14 1  
    12   10   11 1  
    13   10   12 1  
    14   12   13 1  
    15   12   15 1  
    16   13   14 1  
    17   13   16 1  
    18   16   17 1  
    19   17   18 1  
    20   18   19 ar 
    21   18   20 ar 
    22   18   21 1  
    23   21   22 1  
    24   22   23 ar 
    25   22   24 ar 
    26   22   25 1  
    27   25   26 1  
    28   26   27 1  
    29   26   35 1  
    30   27   28 1  
    31   27   32 1  
    32   28   29 1  
    33   28   33 1  
    34   29   30 1  
    35   29   34 1  
    36   30   31 1  
    37   30   35 1  
    38   31   36 1  
    39    3   37 1  
    40    5   38 1  
    41    6   39 1  
    42    9   40 1  
    43   10   41 1  
    44   11   42 1  
    45   12   43 1  
    46   13   44 1  
    47   15   45 1  
    48   16   46 1  
    49   16   47 1  
    50   26   48 1  
    51   27   49 1  
    52   28   50 1  
    53   29   51 1  
    54   30   52 1  
    55   31   53 1  
    56   31   54 1  
    57   32   55 1  
    58   33   56 1  
    59   34   57 1  
    60   36   58 1  
@<TRIPOS>SUBSTRUCTURE
     1 UPG         1

