3juk_ligand
  -I-interpret- 

 60 62  0  0  0  0  0  0  0  0999 V2000
   59.8830   37.3130   55.8530 N   0  0  0  0  0
   60.0270   35.9090   55.8450 C   0  0  0  0  0
   58.9470   35.1800   55.7630 N   0  0  0  0  0
   57.7510   35.7550   55.6910 C   0  0  0  0  0
   57.5660   37.1390   55.6940 C   0  0  0  0  0
   58.6930   37.9180   55.7790 C   0  0  0  0  0
   61.1240   35.3810   55.9130 O   0  0  0  0  0
   56.8260   35.0180   55.6260 O   0  0  0  0  0
   61.1090   38.0900   55.9560 C   0  0  0  0  0
   61.4600   38.9410   54.7670 C   0  0  0  0  0
   62.0420   38.2270   53.6990 O   0  0  0  0  0
   62.2830   40.0280   55.4130 C   0  0  0  0  0
   61.6470   40.1290   56.7700 C   0  0  0  0  0
   60.9720   38.9540   57.0280 O   0  0  0  0  0
   63.6250   39.7020   55.7030 O   0  0  0  0  0
   60.7940   41.3470   56.9160 C   0  0  0  0  0
   59.7890   41.2690   55.9860 O   0  0  0  0  0
   59.1270   42.4940   55.4580 P   0  0  0  0  0
   58.1110   42.1740   54.6250 O   0  0  0  0  0
   60.0190   43.2530   54.7040 O   0  0  0  0  0
   58.5840   43.2500   56.7260 O   0  0  0  0  0
   58.3510   44.7670   56.9630 P   0  0  0  0  0
   59.4360   45.4950   56.4440 O   0  0  0  0  0
   57.1150   45.1620   56.4230 O   0  0  0  0  0
   58.4190   44.9440   58.5010 O   0  0  0  0  0
   59.4460   44.5490   59.3830 C   0  0  0  0  0
   58.9140   44.5760   60.8140 C   0  0  0  0  0
   58.5940   46.0040   61.2670 C   0  0  0  0  0
   59.8270   46.8920   61.0280 C   0  0  0  0  0
   60.3030   46.7340   59.5660 C   0  0  0  0  0
   61.5400   47.5690   59.3110 C   0  0  0  0  0
   57.7850   43.7550   60.8160 O   0  0  0  0  0
   58.1260   46.0440   62.5680 O   0  0  0  0  0
   59.6920   48.2650   61.3650 O   0  0  0  0  0
   60.5830   45.3810   59.3070 O   0  0  0  0  0
   62.3290   47.0600   58.3380 O   0  0  0  0  0
   59.0216   34.1628   55.7541 H   0  0  0  0  0
   56.5715   37.5809   55.6317 H   0  0  0  0  0
   58.6194   39.0055   55.7860 H   0  0  0  0  0
   61.9052   37.3520   56.0535 H   0  0  0  0  0
   60.6092   39.3539   54.2250 H   0  0  0  0  0
   62.2379   38.8322   52.9800 H   0  0  0  0  0
   62.3005   40.8916   54.7482 H   0  0  0  0  0
   62.4235   40.2556   57.5244 H   0  0  0  0  0
   64.0561   40.4575   56.1091 H   0  0  0  0  0
   61.3884   42.2466   56.7562 H   0  0  0  0  0
   60.3760   41.3980   57.9214 H   0  0  0  0  0
   60.7642   43.5077   55.2529 H   0  0  0  0  0
   60.2503   45.1842   56.8465 H   0  0  0  0  0
   59.7525   43.5445   59.0911 H   0  0  0  0  0
   59.6570   44.2137   61.5245 H   0  0  0  0  0
   57.7737   46.4018   60.6696 H   0  0  0  0  0
   60.5754   46.5268   61.7313 H   0  0  0  0  0
   59.5105   47.0795   58.9022 H   0  0  0  0  0
   62.1216   47.5914   60.2326 H   0  0  0  0  0
   61.2129   48.5580   58.9902 H   0  0  0  0  0
   57.4068   43.7351   61.6981 H   0  0  0  0  0
   57.9382   46.9534   62.8115 H   0  0  0  0  0
   60.5150   48.7220   61.1768 H   0  0  0  0  0
   63.0946   47.6269   58.2191 H   0  0  0  0  0
  1  2  1  0  0  0
  1  6  1  0  0  0
  1  9  1  0  0  0
  2  3  1  0  0  0
  2  7  2  0  0  0
  3  4  1  0  0  0
  4  5  1  0  0  0
  4  8  2  0  0  0
  5  6  2  0  0  0
  9 10  1  0  0  0
  9 14  1  0  0  0
 10 11  1  0  0  0
 10 12  1  0  0  0
 12 13  1  0  0  0
 12 15  1  0  0  0
 13 14  1  0  0  0
 13 16  1  0  0  0
 16 17  1  0  0  0
 17 18  1  0  0  0
 18 19  2  0  0  0
 18 20  1  0  0  0
 18 21  1  0  0  0
 21 22  1  0  0  0
 22 23  1  0  0  0
 22 24  2  0  0  0
 22 25  1  0  0  0
 25 26  1  0  0  0
 26 27  1  0  0  0
 26 35  1  0  0  0
 27 28  1  0  0  0
 27 32  1  0  0  0
 28 29  1  0  0  0
 28 33  1  0  0  0
 29 30  1  0  0  0
 29 34  1  0  0  0
 30 31  1  0  0  0
 30 35  1  0  0  0
 31 36  1  0  0  0
  3 37  1  0  0  0
  5 38  1  0  0  0
  6 39  1  0  0  0
  9 40  1  0  0  0
 10 41  1  0  0  0
 11 42  1  0  0  0
 12 43  1  0  0  0
 13 44  1  0  0  0
 15 45  1  0  0  0
 16 46  1  0  0  0
 16 47  1  0  0  0
 20 48  1  0  0  0
 23 49  1  0  0  0
 26 50  1  0  0  0
 27 51  1  0  0  0
 28 52  1  0  0  0
 29 53  1  0  0  0
 30 54  1  0  0  0
 31 55  1  0  0  0
 31 56  1  0  0  0
 32 57  1  0  0  0
 33 58  1  0  0  0
 34 59  1  0  0  0
 36 60  1  0  0  0
M  END
$$$$
