### 
### Created by X-TOOL on Mon Aug  2 16:15:09 2021
### 

@<TRIPOS>MOLECULE
6n3x_ligand
   51    54     1     0     0
SMALL
GAST_HUCK


@<TRIPOS>ATOM
      1 N1        -27.5650    4.7750  -34.0480 N.am      1 KBD        -0.2478
      2 N3        -27.3900    5.2520  -31.7150 N.pl3     1 KBD        -0.1901
      3 C4        -28.7290    5.1650  -31.5890 C.2       1 KBD         0.3268
      4 C5        -29.5770    4.8700  -32.7490 C.2       1 KBD         0.2558
      5 C6        -28.8970    4.6690  -34.0380 C.2       1 KBD         0.2628
      6 C7        -31.5720    6.7790  -23.2500 C.3       1 KBD         0.0664
      7 C8        -30.8260    5.1130  -31.0030 C.2       1 KBD         0.1855
      8 C15       -32.6150    7.7710  -23.7170 C.ar      1 KBD        -0.0210
      9 C17       -34.1850    9.5300  -23.2090 C.ar      1 KBD        -0.0685
     10 C20       -32.9680    7.8520  -25.0610 C.ar      1 KBD        -0.0584
     11 C1        -31.8060    4.5120  -24.0850 C.2       1 KBD         0.3215
     12 C16       -33.2240    8.6140  -22.7930 C.ar      1 KBD        -0.0584
     13 C18       -34.5330    9.6090  -24.5530 C.ar      1 KBD        -0.0687
     14 C19       -33.9260    8.7690  -25.4800 C.ar      1 KBD        -0.0685
     15 O2        -32.3360    3.4230  -24.2340 O.2       1 KBD        -0.3774
     16 C2        -26.8490    5.0430  -32.9410 C.cat     1 KBD         0.2041
     17 N2        -25.5110    5.1200  -33.0860 N.pl3     1 KBD        -0.3327
     18 N4        -32.1310    5.4350  -23.1800 N.am      1 KBD        -0.2512
     19 C1'       -29.1870    5.6370  -29.2090 C.3       1 KBD         0.2218
     20 C2'       -29.9750    6.8280  -28.6700 C.3       1 KBD         0.1407
     21 C3'       -29.9480    6.5860  -27.1460 C.3       1 KBD         0.1150
     22 C4'       -29.5990    5.0960  -27.0220 C.3       1 KBD         0.1182
     23 C5'       -30.5850    4.2950  -26.2380 C.3       1 KBD         0.1060
     24 N7        -30.8530    4.8490  -32.3280 N.2       1 KBD        -0.1929
     25 N9        -29.5630    5.2900  -30.5710 N.pl3     1 KBD        -0.0954
     26 O2'       -29.4530    8.0620  -29.1180 O.3       1 KBD        -0.3835
     27 O3'       -28.9610    7.3830  -26.4780 O.3       1 KBD        -0.3864
     28 O4'       -29.5240    4.5800  -28.3660 O.3       1 KBD        -0.3347
     29 O5'       -30.7340    4.8900  -24.9650 O.3       1 KBD        -0.2611
     30 O6        -29.5490    4.4290  -35.0810 O.2       1 KBD        -0.3594
     31 H1        -27.0805    4.6500  -34.9138 H         1 KBD         0.1819
     32 H2        -26.7946    5.4709  -30.9035 H         1 KBD         0.2519
     33 H3        -31.2153    7.0736  -22.2520 H         1 KBD         0.0683
     34 H4        -30.7289    6.7826  -23.9566 H         1 KBD         0.0683
     35 H5        -31.7089    5.1745  -30.3685 H         1 KBD         0.1823
     36 H6        -34.6621   10.1816  -22.4860 H         1 KBD         0.0599
     37 H7        -32.4943    7.1977  -25.7840 H         1 KBD         0.0557
     38 H8        -32.9490    8.5570  -21.7460 H         1 KBD         0.0557
     39 H9        -35.2781   10.3260  -24.8783 H         1 KBD         0.0559
     40 H10       -34.1990    8.8288  -26.5274 H         1 KBD         0.0599
     41 H11       -25.0833    4.9641  -34.0099 H         1 KBD         0.1774
     42 H12       -24.9164    5.3347  -32.2729 H         1 KBD         0.1774
     43 H13       -32.7664    5.2023  -22.4437 H         1 KBD         0.1894
     44 H14       -28.1076    5.8449  -29.1688 H         1 KBD         0.1021
     45 H15       -31.0163    6.7730  -29.0203 H         1 KBD         0.0677
     46 H16       -30.9351    6.7949  -26.7079 H         1 KBD         0.0648
     47 H17       -28.6176    5.0034  -26.5339 H         1 KBD         0.0650
     48 H18       -30.2194    3.2637  -26.1251 H         1 KBD         0.0638
     49 H19       -31.5537    4.2857  -26.7590 H         1 KBD         0.0638
     50 H20       -28.5419    8.1322  -28.8581 H         1 KBD         0.2101
     51 H21       -28.1107    7.2284  -26.8725 H         1 KBD         0.2100
@<TRIPOS>BOND
     1    5    1 am 
     2   16    1 ar 
     3    3    2 1  
     4    2   16 ar 
     5    3    4 2  
     6   25    3 1  
     7    4    5 1  
     8   24    4 1  
     9    5   30 2  
    10    6    8 1  
    11   18    6 1  
    12    7   24 2  
    13   25    7 1  
    14    8   10 ar 
    15    8   12 ar 
    16   12    9 ar 
    17    9   13 ar 
    18   10   14 ar 
    19   11   15 2  
    20   11   18 am 
    21   29   11 1  
    22   14   13 ar 
    23   16   17 ar 
    24   19   20 1  
    25   19   25 1  
    26   28   19 1  
    27   21   20 1  
    28   20   26 1  
    29   22   21 1  
    30   21   27 1  
    31   23   22 1  
    32   22   28 1  
    33   23   29 1  
    34    1   31 1  
    35    2   32 1  
    36    6   33 1  
    37    6   34 1  
    38    7   35 1  
    39    9   36 1  
    40   10   37 1  
    41   12   38 1  
    42   13   39 1  
    43   14   40 1  
    44   17   41 1  
    45   17   42 1  
    46   18   43 1  
    47   19   44 1  
    48   20   45 1  
    49   21   46 1  
    50   22   47 1  
    51   23   48 1  
    52   23   49 1  
    53   26   50 1  
    54   27   51 1  
@<TRIPOS>SUBSTRUCTURE
     1 KBD         1

