6n3x_ligand
  -I-interpret- 

 49 52  0  0  0  0  0  0  0  0999 V2000
  -27.5650    4.7750  -34.0480 N   0  0  0  0  0
  -27.3900    5.2520  -31.7150 N   0  0  0  0  0
  -28.7290    5.1650  -31.5890 C   0  0  0  0  0
  -29.5770    4.8700  -32.7490 C   0  0  0  0  0
  -28.8970    4.6690  -34.0380 C   0  0  0  0  0
  -31.5720    6.7790  -23.2500 C   0  0  0  0  0
  -30.8260    5.1130  -31.0030 C   0  0  0  0  0
  -32.6150    7.7710  -23.7170 C   0  0  0  0  0
  -34.1850    9.5300  -23.2090 C   0  0  0  0  0
  -32.9680    7.8520  -25.0610 C   0  0  0  0  0
  -31.8060    4.5120  -24.0850 C   0  0  0  0  0
  -33.2240    8.6140  -22.7930 C   0  0  0  0  0
  -34.5330    9.6090  -24.5530 C   0  0  0  0  0
  -33.9260    8.7690  -25.4800 C   0  0  0  0  0
  -32.3360    3.4230  -24.2340 O   0  0  0  0  0
  -26.8490    5.0430  -32.9410 C   0  0  0  0  0
  -25.5110    5.1200  -33.0860 N   0  0  0  0  0
  -32.1310    5.4350  -23.1800 N   0  0  0  0  0
  -29.1870    5.6370  -29.2090 C   0  0  0  0  0
  -29.9750    6.8280  -28.6700 C   0  0  0  0  0
  -29.9480    6.5860  -27.1460 C   0  0  0  0  0
  -29.5990    5.0960  -27.0220 C   0  0  0  0  0
  -30.5850    4.2950  -26.2380 C   0  0  0  0  0
  -30.8530    4.8490  -32.3280 N   0  0  0  0  0
  -29.5630    5.2900  -30.5710 N   0  0  0  0  0
  -29.4530    8.0620  -29.1180 O   0  0  0  0  0
  -28.9610    7.3830  -26.4780 O   0  0  0  0  0
  -29.5240    4.5800  -28.3660 O   0  0  0  0  0
  -30.7340    4.8900  -24.9650 O   0  0  0  0  0
  -29.5490    4.4290  -35.0810 O   0  0  0  0  0
  -26.8004    5.4688  -30.9114 H   0  0  0  0  0
  -31.2302    7.0697  -22.2566 H   0  0  0  0  0
  -30.7444    6.7790  -23.9593 H   0  0  0  0  0
  -31.7097    5.1745  -30.3679 H   0  0  0  0  0
  -34.6648   10.1852  -22.4820 H   0  0  0  0  0
  -32.4917    7.1941  -25.7879 H   0  0  0  0  0
  -32.9475    8.5567  -21.7402 H   0  0  0  0  0
  -35.2822   10.3300  -24.8801 H   0  0  0  0  0
  -34.2005    8.8291  -26.5332 H   0  0  0  0  0
  -25.0884    4.9775  -34.0033 H   0  0  0  0  0
  -32.7791    5.1976  -22.4290 H   0  0  0  0  0
  -28.1212    5.8643  -29.2321 H   0  0  0  0  0
  -31.0011    6.9003  -29.0304 H   0  0  0  0  0
  -30.8956    6.8579  -26.6810 H   0  0  0  0  0
  -28.6605    5.0107  -26.4742 H   0  0  0  0  0
  -30.2305    3.2699  -26.1306 H   0  0  0  0  0
  -31.5445    4.2763  -26.7549 H   0  0  0  0  0
  -29.9772    8.7802  -28.7561 H   0  0  0  0  0
  -28.9843    7.1965  -25.5366 H   0  0  0  0  0
  5  1  1  0  0  0
 16  1  4  0  0  0
  3  2  1  0  0  0
  2 16  1  0  0  0
  3  4  4  0  0  0
 25  3  4  0  0  0
  4  5  1  0  0  0
 24  4  4  0  0  0
  5 30  2  0  0  0
  6  8  1  0  0  0
 18  6  1  0  0  0
  7 24  4  0  0  0
 25  7  4  0  0  0
  8 10  4  0  0  0
  8 12  4  0  0  0
 12  9  4  0  0  0
  9 13  4  0  0  0
 10 14  4  0  0  0
 11 15  2  0  0  0
 11 18  1  0  0  0
 29 11  1  0  0  0
 14 13  4  0  0  0
 16 17  2  0  0  0
 19 20  1  0  0  0
 19 25  1  0  0  0
 28 19  1  0  0  0
 21 20  1  0  0  0
 20 26  1  0  0  0
 22 21  1  0  0  0
 21 27  1  0  0  0
 23 22  1  0  0  0
 22 28  1  0  0  0
 23 29  1  0  0  0
  2 31  1  0  0  0
  6 32  1  0  0  0
  6 33  1  0  0  0
  7 34  1  0  0  0
  9 35  1  0  0  0
 10 36  1  0  0  0
 12 37  1  0  0  0
 13 38  1  0  0  0
 14 39  1  0  0  0
 17 40  1  0  0  0
 18 41  1  0  0  0
 19 42  1  0  0  0
 20 43  1  0  0  0
 21 44  1  0  0  0
 22 45  1  0  0  0
 23 46  1  0  0  0
 23 47  1  0  0  0
 26 48  1  0  0  0
 27 49  1  0  0  0
M  END
$$$$
