### 
### Created by X-TOOL on Mon Sep 10 21:12:45 2018
### 

@<TRIPOS>MOLECULE
1azm_ligand
   19    19     1     0     0
SMALL
GAST_HUCK


@<TRIPOS>ATOM
      1 C1         34.7630   17.1930  -17.9380 C.2       1 AZM         0.2562
      2 C2         34.4370   16.4480  -20.1450 C.2       1 AZM         0.2252
      3 C3         32.9390   14.7710  -20.9940 C.2       1 AZM         0.2120
      4 C4         32.4510   14.0020  -22.1390 C.3       1 AZM         0.0337
      5 N1         36.4910   17.6300  -15.9610 N.am      1 AZM        -0.2565
      6 N2         35.0660   17.6270  -20.0430 N.2       1 AZM        -0.2573
      7 N3         35.1880   18.0710  -18.7670 N.2       1 AZM        -0.2476
      8 N4         33.7590   15.8350  -21.2140 N.am      1 AZM        -0.1925
      9 O1         34.6720   16.0100  -15.7230 O.2       1 AZM        -0.1452
     10 O2         34.1710   18.4170  -15.6930 O.2       1 AZM        -0.1452
     11 O3         32.5820   14.4290  -19.8630 O.2       1 AZM        -0.3804
     12 S1         34.9540   17.3730  -16.1930 S.o2      1 AZM         0.0991
     13 S2         34.0480   15.8110  -18.6090 S.3       1 AZM         0.0874
     14 H1         31.8062   13.1847  -21.7837 H         1 AZM         0.0474
     15 H2         33.3056   13.5819  -22.6896 H         1 AZM         0.0474
     16 H3         31.8743   14.6612  -22.8045 H         1 AZM         0.0474
     17 H4         36.8412   17.7640  -15.0340 H         1 AZM         0.1638
     18 H5         37.1164   17.6591  -16.7408 H         1 AZM         0.1638
     19 H6         33.8804   16.1837  -22.1433 H         1 AZM         0.2411
@<TRIPOS>BOND
     1    1    7 2  
     2    1   12 1  
     3   13    1 1  
     4    2    6 2  
     5    8    2 1  
     6    2   13 1  
     7    3    4 1  
     8    3    8 am 
     9    3   11 2  
    10   12    5 am 
    11    6    7 1  
    12   12    9 2  
    13   12   10 2  
    14    4   14 1  
    15    4   15 1  
    16    4   16 1  
    17    5   17 1  
    18    5   18 1  
    19    8   19 1  
@<TRIPOS>SUBSTRUCTURE
     1 AZM         1

