1azm_ligand
  -I-interpret- 

 19 19  0  0  0  0  0  0  0  0999 V2000
   34.7630   17.1930  -17.9380 C   0  0  0  0  0
   34.4370   16.4480  -20.1450 C   0  0  0  0  0
   32.9390   14.7710  -20.9940 C   0  0  0  0  0
   32.4510   14.0020  -22.1390 C   0  0  0  0  0
   36.4910   17.6300  -15.9610 N   0  0  0  0  0
   35.0660   17.6270  -20.0430 N   0  0  0  0  0
   35.1880   18.0710  -18.7670 N   0  0  0  0  0
   33.7590   15.8350  -21.2140 N   0  0  0  0  0
   34.6720   16.0100  -15.7230 O   0  0  0  0  0
   34.1710   18.4170  -15.6930 O   0  0  0  0  0
   32.5820   14.4290  -19.8630 O   0  0  0  0  0
   34.9540   17.3730  -16.1930 S   0  0  0  0  0
   34.0480   15.8110  -18.6090 S   0  0  0  0  0
   32.7754   12.9658  -22.0439 H   0  0  0  0  0
   31.3620   14.0423  -22.1645 H   0  0  0  0  0
   32.8532   14.4271  -23.0586 H   0  0  0  0  0
   37.0739   16.9003  -15.5508 H   0  0  0  0  0
   36.9032   18.5261  -16.2210 H   0  0  0  0  0
   33.8828   16.1907  -22.1619 H   0  0  0  0  0
  1  7  4  0  0  0
  1 12  1  0  0  0
 13  1  4  0  0  0
  2  6  4  0  0  0
  8  2  1  0  0  0
  2 13  4  0  0  0
  3  4  1  0  0  0
  3  8  1  0  0  0
  3 11  2  0  0  0
 12  5  1  0  0  0
  6  7  4  0  0  0
 12  9  2  0  0  0
 12 10  2  0  0  0
  4 14  1  0  0  0
  4 15  1  0  0  0
  4 16  1  0  0  0
  5 17  1  0  0  0
  5 18  1  0  0  0
  8 19  1  0  0  0
M  END
$$$$
