1a9q_ligand
  -I-interpret- 

 13 14  0  0  0  0  0  0  0  0999 V2000
   26.4350   90.1800   73.3310 N   0  0  0  0  0
   25.4470   89.2520   73.2650 C   0  0  0  0  0
   24.1760   89.5420   73.4220 N   0  0  0  0  0
   23.9780   90.8460   73.6490 C   0  0  0  0  0
   24.9260   91.8320   73.7320 C   0  0  0  0  0
   26.2860   91.5180   73.5670 C   0  0  0  0  0
   27.2920   92.2380   73.5880 O   0  0  0  0  0
   24.2930   93.0240   73.9720 N   0  0  0  0  0
   22.9680   92.7560   74.0240 C   0  0  0  0  0
   22.7370   91.4180   73.8270 N   0  0  0  0  0
   27.3877   89.8441   73.1898 H   0  0  0  0  0
   25.7220   88.2150   73.0722 H   0  0  0  0  0
   22.1911   93.5004   74.1984 H   0  0  0  0  0
  1  2  1  0  0  0
  1  6  1  0  0  0
  2  3  2  0  0  0
  3  4  1  0  0  0
  4  5  4  0  0  0
  4 10  4  0  0  0
  5  6  1  0  0  0
  5  8  4  0  0  0
  6  7  2  0  0  0
  8  9  4  0  0  0
  9 10  4  0  0  0
  1 11  1  0  0  0
  2 12  1  0  0  0
  9 13  1  0  0  0
M  END
$$$$
