### 
### Created by X-TOOL on Mon Sep 10 21:12:46 2018
### 

@<TRIPOS>MOLECULE
1a9q_ligand
   14    15     1     0     0
SMALL
GAST_HUCK


@<TRIPOS>ATOM
      1 N1         26.4350   90.1800   73.3310 N.am      1 HPA        -0.2042
      2 C2         25.4470   89.2520   73.2650 C.2       1 HPA         0.1273
      3 N3         24.1760   89.5420   73.4220 N.2       1 HPA        -0.2685
      4 C4         23.9780   90.8460   73.6490 C.2       1 HPA         0.1309
      5 C5         24.9260   91.8320   73.7320 C.2       1 HPA         0.1041
      6 C6         26.2860   91.5180   73.5670 C.2       1 HPA         0.2200
      7 O6         27.2920   92.2380   73.5880 O.2       1 HPA        -0.4066
      8 N7         24.2930   93.0240   73.9720 N.2       1 HPA        -0.3157
      9 C8         22.9680   92.7560   74.0240 C.2       1 HPA         0.0954
     10 N9         22.7370   91.4180   73.8270 N.pl3     1 HPA        -0.2484
     11 H1         27.3690   89.8507   73.1926 H         1 HPA         0.2557
     12 H2         25.7218   88.2160   73.0724 H         1 HPA         0.1493
     13 H3         22.1918   93.4997   74.1982 H         1 HPA         0.1210
     14 H4         21.8247   90.9400   73.8147 H         1 HPA         0.2395
@<TRIPOS>BOND
     1    1    2 1  
     2    1    6 am 
     3    2    3 2  
     4    3    4 1  
     5    4    5 2  
     6    4   10 1  
     7    5    6 1  
     8    5    8 1  
     9    6    7 2  
    10    8    9 2  
    11    9   10 1  
    12    1   11 1  
    13    2   12 1  
    14    9   13 1  
    15   10   14 1  
@<TRIPOS>SUBSTRUCTURE
     1 HPA         1

