6qlq_ligand
  -I-interpret- 

 52 55  0  0  0  0  0  0  0  0999 V2000
  -20.5270    5.3170    0.1700 C   0  0  0  0  0
  -14.3550    8.0230   -0.3930 C   0  0  0  0  0
  -12.3430    8.8960    2.6470 C   0  0  0  0  0
  -11.0310    8.9850    2.1390 C   0  0  0  0  0
  -11.9300    8.4410   -0.0310 C   0  0  0  0  0
  -25.2250    8.6800   -6.2810 C   0  0  0  0  0
  -24.1960    8.9770   -5.1810 C   0  0  0  0  0
  -23.6860   10.2890   -4.9630 C   0  0  0  0  0
  -22.7330   10.5980   -3.9550 C   0  0  0  0  0
  -22.2320    9.5990   -3.0870 C   0  0  0  0  0
  -19.9550    8.4360   -1.7100 C   0  0  0  0  0
  -19.8720    6.2350   -0.8480 C   0  0  0  0  0
  -18.3750    6.4080   -0.5410 C   0  0  0  0  0
  -17.7810    7.4680   -1.5160 C   0  0  0  0  0
  -15.7110    8.1520   -0.1580 C   0  0  0  0  0
  -13.2570    8.3790    0.4430 C   0  0  0  0  0
  -13.4040    8.5910    1.8070 C   0  0  0  0  0
  -10.8430    8.7520    0.7750 C   0  0  0  0  0
  -18.5010    8.7920   -1.4210 C   0  0  0  0  0
  -22.7240    8.2920   -3.2940 C   0  0  0  0  0
  -23.6750    7.9930   -4.3080 C   0  0  0  0  0
  -10.0030    9.2600    2.9160 F   0  0  0  0  0
  -16.3600    7.5930   -1.2680 N   0  0  0  0  0
  -14.2450    7.3410   -1.6310 N   0  0  0  0  0
  -15.4080    7.1040   -2.1290 N   0  0  0  0  0
  -20.4870    7.5240   -0.7740 O   0  0  0  0  0
  -21.8610    5.1270   -0.2430 O   0  0  0  0  0
  -18.1620    6.8670    0.7800 O   0  0  0  0  0
  -17.9790    9.6210   -2.4440 O   0  0  0  0  0
  -21.0000    9.9210   -1.7800 S   0  0  0  0  0
  -20.4913    5.7585    1.1660 H   0  0  0  0  0
  -20.0009    4.3639    0.2238 H   0  0  0  0  0
  -12.5251    9.0681    3.7078 H   0  0  0  0  0
  -11.7483    8.2339   -1.0856 H   0  0  0  0  0
  -26.1258    9.2670   -6.1021 H   0  0  0  0  0
  -24.8043    8.9442   -7.2512 H   0  0  0  0  0
  -25.4728    7.6186   -6.2679 H   0  0  0  0  0
  -24.0446   11.0965   -5.6013 H   0  0  0  0  0
  -22.3812   11.6242   -3.8485 H   0  0  0  0  0
  -19.9569    7.9513   -2.6863 H   0  0  0  0  0
  -19.9926    5.7950   -1.8379 H   0  0  0  0  0
  -17.8945    5.4368   -0.6589 H   0  0  0  0  0
  -17.9282    7.1307   -2.5420 H   0  0  0  0  0
  -16.1824    8.5996    0.7169 H   0  0  0  0  0
  -14.4018    8.5141    2.2390 H   0  0  0  0  0
   -9.8440    8.8142    0.3435 H   0  0  0  0  0
  -18.3948    9.3064   -0.4659 H   0  0  0  0  0
  -22.3630    7.4856   -2.6556 H   0  0  0  0  0
  -24.0166    6.9637   -4.4172 H   0  0  0  0  0
  -22.3083    4.5492    0.3796 H   0  0  0  0  0
  -17.2197    6.9633    0.9361 H   0  0  0  0  0
  -17.0643    9.8347   -2.2457 H   0  0  0  0  0
 12  1  1  0  0  0
  1 27  1  0  0  0
 15  2  4  0  0  0
  2 16  1  0  0  0
  2 24  4  0  0  0
  4  3  4  0  0  0
  3 17  4  0  0  0
 18  4  4  0  0  0
  4 22  1  0  0  0
 16  5  4  0  0  0
  5 18  4  0  0  0
  7  6  1  0  0  0
  8  7  4  0  0  0
  7 21  4  0  0  0
  9  8  4  0  0  0
 10  9  4  0  0  0
 10 20  4  0  0  0
 30 10  1  0  0  0
 19 11  1  0  0  0
 11 26  1  0  0  0
 11 30  1  0  0  0
 13 12  1  0  0  0
 12 26  1  0  0  0
 14 13  1  0  0  0
 13 28  1  0  0  0
 14 19  1  0  0  0
 23 14  1  0  0  0
 15 23  4  0  0  0
 16 17  4  0  0  0
 19 29  1  0  0  0
 20 21  4  0  0  0
 23 25  4  0  0  0
 24 25  4  0  0  0
  1 31  1  0  0  0
  1 32  1  0  0  0
  3 33  1  0  0  0
  5 34  1  0  0  0
  6 35  1  0  0  0
  6 36  1  0  0  0
  6 37  1  0  0  0
  8 38  1  0  0  0
  9 39  1  0  0  0
 11 40  1  0  0  0
 12 41  1  0  0  0
 13 42  1  0  0  0
 14 43  1  0  0  0
 15 44  1  0  0  0
 17 45  1  0  0  0
 18 46  1  0  0  0
 19 47  1  0  0  0
 20 48  1  0  0  0
 21 49  1  0  0  0
 27 50  1  0  0  0
 28 51  1  0  0  0
 29 52  1  0  0  0
M  END
$$$$
