### 
### Created by X-TOOL on Mon Aug  2 16:16:32 2021
### 

@<TRIPOS>MOLECULE
6qlq_ligand
   52    55     1     0     0
SMALL
GAST_HUCK


@<TRIPOS>ATOM
      1 C10       -20.5270    5.3170    0.1700 C.3       1 J4E         0.0730
      2 C17       -14.3550    8.0230   -0.3930 C.2       1 J4E         0.0674
      3 C20       -12.3430    8.8960    2.6470 C.ar      1 J4E        -0.0320
      4 C21       -11.0310    8.9850    2.1390 C.ar      1 J4E         0.1284
      5 C24       -11.9300    8.4410   -0.0310 C.ar      1 J4E        -0.0613
      6 C01       -25.2250    8.6800   -6.2810 C.3       1 J4E        -0.0343
      7 C02       -24.1960    8.9770   -5.1810 C.ar      1 J4E        -0.0527
      8 C03       -23.6860   10.2890   -4.9630 C.ar      1 J4E        -0.0663
      9 C04       -22.7330   10.5980   -3.9550 C.ar      1 J4E        -0.0563
     10 C05       -22.2320    9.5990   -3.0870 C.ar      1 J4E         0.0110
     11 C07       -19.9550    8.4360   -1.7100 C.3       1 J4E         0.1452
     12 C09       -19.8720    6.2350   -0.8480 C.3       1 J4E         0.1124
     13 C12       -18.3750    6.4080   -0.5410 C.3       1 J4E         0.1195
     14 C14       -17.7810    7.4680   -1.5160 C.3       1 J4E         0.1475
     15 C16       -15.7110    8.1520   -0.1580 C.2       1 J4E         0.0867
     16 C18       -13.2570    8.3790    0.4430 C.ar      1 J4E        -0.0231
     17 C19       -13.4040    8.5910    1.8070 C.ar      1 J4E        -0.0613
     18 C23       -10.8430    8.7520    0.7750 C.ar      1 J4E        -0.0320
     19 C27       -18.5010    8.7920   -1.4210 C.3       1 J4E         0.1285
     20 C29       -22.7240    8.2920   -3.2940 C.ar      1 J4E        -0.0563
     21 C30       -23.6750    7.9930   -4.3080 C.ar      1 J4E        -0.0663
     22 F22       -10.0030    9.2600    2.9160 F         1 J4E        -0.1864
     23 N15       -16.3600    7.5930   -1.2680 N.pl3     1 J4E        -0.1596
     24 N25       -14.2450    7.3410   -1.6310 N.2       1 J4E        -0.2175
     25 N26       -15.4080    7.1040   -2.1290 N.2       1 J4E        -0.0908
     26 O08       -20.4870    7.5240   -0.7740 O.3       1 J4E        -0.3530
     27 O11       -21.8610    5.1270   -0.2430 O.3       1 J4E        -0.3924
     28 O13       -18.1620    6.8670    0.7800 O.3       1 J4E        -0.3857
     29 O28       -17.9790    9.6210   -2.4440 O.3       1 J4E        -0.3848
     30 S06       -21.0000    9.9210   -1.7800 S.3       1 J4E        -0.0726
     31 H1        -20.5030    5.7808    1.1672 H         1 J4E         0.0584
     32 H2        -20.0005    4.3517    0.2017 H         1 J4E         0.0584
     33 H3        -12.5241    9.0672    3.7020 H         1 J4E         0.0595
     34 H4        -11.7493    8.2350   -1.0798 H         1 J4E         0.0574
     35 H5        -25.4666    9.6093   -6.8176 H         1 J4E         0.0378
     36 H6        -26.1394    8.2706   -5.8269 H         1 J4E         0.0378
     37 H7        -24.8063    7.9474   -6.9867 H         1 J4E         0.0378
     38 H8        -24.0427   11.0920   -5.5978 H         1 J4E         0.0540
     39 H9        -22.3832   11.6185   -3.8490 H         1 J4E         0.0548
     40 H10       -19.9843    7.9548   -2.6987 H         1 J4E         0.0764
     41 H11       -19.9977    5.8141   -1.8565 H         1 J4E         0.0646
     42 H12       -17.8642    5.4436   -0.6788 H         1 J4E         0.0655
     43 H13       -17.9135    7.0965   -2.5429 H         1 J4E         0.0746
     44 H14       -16.1819    8.5992    0.7161 H         1 J4E         0.1065
     45 H15       -14.3963    8.5145    2.2367 H         1 J4E         0.0574
     46 H16        -9.8495    8.8139    0.3459 H         1 J4E         0.0595
     47 H17       -18.3860    9.2628   -0.4335 H         1 J4E         0.0664
     48 H18       -22.3650    7.4901   -2.6591 H         1 J4E         0.0548
     49 H19       -24.0147    6.9693   -4.4166 H         1 J4E         0.0540
     50 H20       -22.3048    5.9665   -0.2727 H         1 J4E         0.2095
     51 H21       -17.2298    6.9693    0.9321 H         1 J4E         0.2100
     52 H22       -18.4102   10.4670   -2.4154 H         1 J4E         0.2101
@<TRIPOS>BOND
     1   12    1 1  
     2    1   27 1  
     3   15    2 2  
     4    2   16 1  
     5    2   24 1  
     6    4    3 ar 
     7    3   17 ar 
     8   18    4 ar 
     9    4   22 1  
    10   16    5 ar 
    11    5   18 ar 
    12    7    6 1  
    13    8    7 ar 
    14    7   21 ar 
    15    9    8 ar 
    16   10    9 ar 
    17   10   20 ar 
    18   30   10 1  
    19   19   11 1  
    20   11   26 1  
    21   11   30 1  
    22   13   12 1  
    23   12   26 1  
    24   14   13 1  
    25   13   28 1  
    26   14   19 1  
    27   23   14 1  
    28   15   23 1  
    29   16   17 ar 
    30   19   29 1  
    31   20   21 ar 
    32   23   25 1  
    33   24   25 2  
    34    1   31 1  
    35    1   32 1  
    36    3   33 1  
    37    5   34 1  
    38    6   35 1  
    39    6   36 1  
    40    6   37 1  
    41    8   38 1  
    42    9   39 1  
    43   11   40 1  
    44   12   41 1  
    45   13   42 1  
    46   14   43 1  
    47   15   44 1  
    48   17   45 1  
    49   18   46 1  
    50   19   47 1  
    51   20   48 1  
    52   21   49 1  
    53   27   50 1  
    54   28   51 1  
    55   29   52 1  
@<TRIPOS>SUBSTRUCTURE
     1 J4E         1

