3iue_ligand
  -I-interpret- 

 45 47  0  0  0  0  0  0  0  0999 V2000
   18.6200   11.0520   -1.1570 C   0  0  0  0  0
   16.0930   10.3500   -1.4670 N   0  0  0  0  0
   18.2980   12.2380   -0.9520 O   0  0  0  0  0
   17.5690   10.0710   -1.6130 C   0  0  0  0  0
   11.0540    9.6080   -5.1280 C   0  0  0  0  0
   19.9850    7.7090    4.8470 C   0  0  0  0  0
   16.9500   10.7940    1.1980 O   0  0  0  0  0
   13.9870   10.2830    4.2130 O   0  0  0  0  0
   15.3610   12.3710    3.7000 O   0  0  0  0  0
   18.8460    9.8750    4.6980 C   0  0  0  0  0
   17.7060   10.6180    4.3760 C   0  0  0  0  0
   14.5800   10.0230   -4.8140 C   0  0  0  0  0
   15.5910   10.0650   -3.8550 C   0  0  0  0  0
   17.7160    7.8430    3.9890 C   0  0  0  0  0
   12.9950   10.4720   -3.0660 C   0  0  0  0  0
   14.0450   10.6770   -0.8170 C   0  0  0  0  0
   16.5950    8.6130    3.6530 N   0  0  0  0  0
   14.7750   10.7060    1.8030 N   0  0  0  0  0
   12.3180   10.1840   -5.4460 O   0  0  0  0  0
   15.7470   10.7110    0.8890 C   0  0  0  0  0
   18.8480    8.4810    4.5160 C   0  0  0  0  0
   13.2570   10.2100   -4.4360 C   0  0  0  0  0
   16.5930    9.9560    3.8430 C   0  0  0  0  0
   15.3170   10.5750   -0.3960 C   0  0  0  0  0
   14.0120   10.4790   -2.1580 C   0  0  0  0  0
   15.2890   10.2730   -2.5480 C   0  0  0  0  0
   15.1420   10.8860    3.4060 S   0  0  0  0  0
   19.7740   10.5630   -1.0800 O   0  0  0  0  0
   17.7302    9.2067   -0.9687 H   0  0  0  0  0
   17.7143   10.0248   -2.6923 H   0  0  0  0  0
   11.1947    8.5702   -4.8261 H   0  0  0  0  0
   10.5968   10.1665   -4.3112 H   0  0  0  0  0
   10.4070    9.6483   -6.0043 H   0  0  0  0  0
   20.8361    8.0456    4.2550 H   0  0  0  0  0
   20.2080    7.8290    5.9072 H   0  0  0  0  0
   19.7846    6.6591    4.6332 H   0  0  0  0  0
   19.7315   10.3758    5.0894 H   0  0  0  0  0
   17.6840   11.6958    4.5374 H   0  0  0  0  0
   14.8280    9.8434   -5.8601 H   0  0  0  0  0
   16.6298    9.9301   -4.1564 H   0  0  0  0  0
   17.7084    6.7629    3.8428 H   0  0  0  0  0
   11.9744   10.6688   -2.7377 H   0  0  0  0  0
   13.1818   10.8847   -0.1846 H   0  0  0  0  0
   13.8039   10.5910    1.5128 H   0  0  0  0  0
   19.7380    9.6265   -1.2878 H   0  0  0  0  0
  1  3  2  0  0  0
  4  1  1  0  0  0
  1 28  1  0  0  0
  2  4  1  0  0  0
 24  2  4  0  0  0
  2 26  4  0  0  0
 19  5  1  0  0  0
 21  6  1  0  0  0
 20  7  2  0  0  0
 27  8  2  0  0  0
 27  9  2  0  0  0
 11 10  4  0  0  0
 10 21  4  0  0  0
 23 11  4  0  0  0
 13 12  4  0  0  0
 22 12  4  0  0  0
 26 13  4  0  0  0
 17 14  4  0  0  0
 14 21  4  0  0  0
 15 22  4  0  0  0
 25 15  4  0  0  0
 24 16  4  0  0  0
 16 25  4  0  0  0
 23 17  4  0  0  0
 18 20  1  0  0  0
 27 18  1  0  0  0
 22 19  1  0  0  0
 20 24  1  0  0  0
 23 27  1  0  0  0
 25 26  4  0  0  0
  4 29  1  0  0  0
  4 30  1  0  0  0
  5 31  1  0  0  0
  5 32  1  0  0  0
  5 33  1  0  0  0
  6 34  1  0  0  0
  6 35  1  0  0  0
  6 36  1  0  0  0
 10 37  1  0  0  0
 11 38  1  0  0  0
 12 39  1  0  0  0
 13 40  1  0  0  0
 14 41  1  0  0  0
 15 42  1  0  0  0
 16 43  1  0  0  0
 18 44  1  0  0  0
 28 45  1  0  0  0
M  END
$$$$
