### 
### Created by X-TOOL on Mon Sep 10 21:13:00 2018
### 

@<TRIPOS>MOLECULE
3iue_ligand
   44    46     1     0     0
SMALL
GAST_HUCK


@<TRIPOS>ATOM
      1 C          18.6200   11.0520   -1.1570 C.2       1 FG3         0.0636
      2 N          16.0930   10.3500   -1.4670 N.pl3     1 FG3        -0.2447
      3 O          18.2980   12.2380   -0.9520 O.co2     1 FG3        -0.5663
      4 CA         17.5690   10.0710   -1.6130 C.3       1 FG3         0.1030
      5 CAA        11.0540    9.6080   -5.1280 C.3       1 FG3         0.0569
      6 CAB        19.9850    7.7090    4.8470 C.3       1 FG3        -0.0248
      7 OAD        16.9500   10.7940    1.1980 O.2       1 FG3        -0.3825
      8 OAE        13.9870   10.2830    4.2130 O.2       1 FG3        -0.1446
      9 OAF        15.3610   12.3710    3.7000 O.2       1 FG3        -0.1446
     10 CAH        18.8460    9.8750    4.6980 C.ar      1 FG3        -0.0388
     11 CAI        17.7060   10.6180    4.3760 C.ar      1 FG3        -0.0128
     12 CAJ        14.5800   10.0230   -4.8140 C.ar      1 FG3        -0.0427
     13 CAK        15.5910   10.0650   -3.8550 C.ar      1 FG3        -0.0452
     14 CAL        17.7160    7.8430    3.9890 C.ar      1 FG3         0.0144
     15 CAM        12.9950   10.4720   -3.0660 C.ar      1 FG3        -0.0452
     16 CAN        14.0450   10.6770   -0.8170 C.2       1 FG3        -0.0430
     17 NAP        16.5950    8.6130    3.6530 N.ar      1 FG3        -0.2775
     18 NAQ        14.7750   10.7060    1.8030 N.am      1 FG3        -0.1511
     19 OAR        12.3180   10.1840   -5.4460 O.3       1 FG3        -0.3292
     20 CAT        15.7470   10.7110    0.8890 C.2       1 FG3         0.2465
     21 CAU        18.8480    8.4810    4.5160 C.ar      1 FG3        -0.0180
     22 CAV        13.2570   10.2100   -4.4360 C.ar      1 FG3         0.0753
     23 CAW        16.5930    9.9560    3.8430 C.ar      1 FG3         0.1797
     24 CAX        15.3170   10.5750   -0.3960 C.2       1 FG3         0.1351
     25 CAY        14.0120   10.4790   -2.1580 C.ar      1 FG3        -0.0272
     26 CAZ        15.2890   10.2730   -2.5480 C.ar      1 FG3         0.0630
     27 SBB        15.1420   10.8860    3.4060 S.o2      1 FG3         0.1026
     28 OXT        19.7740   10.5630   -1.0800 O.co2     1 FG3        -0.5663
     29 H1         17.7610    9.1376   -1.0636 H         1 FG3         0.0768
     30 H2         17.7461    9.9078   -2.6863 H         1 FG3         0.0768
     31 H3         10.4001    9.6480   -6.0116 H         1 FG3         0.0573
     32 H4         10.5915   10.1708   -4.3038 H         1 FG3         0.0573
     33 H5         11.1946    8.5605   -4.8231 H         1 FG3         0.0573
     34 H6         20.7722    8.3671    5.2436 H         1 FG3         0.0406
     35 H7         20.3548    7.1963    3.9468 H         1 FG3         0.0406
     36 H8         19.7128    6.9630    5.6082 H         1 FG3         0.0406
     37 H9         19.7266   10.3730    5.0873 H         1 FG3         0.0678
     38 H10        17.6841   11.6898    4.5365 H         1 FG3         0.0713
     39 H11        14.8266    9.8444   -5.8544 H         1 FG3         0.0503
     40 H12        16.6241    9.9308   -4.1547 H         1 FG3         0.0535
     41 H13        17.7084    6.7688    3.8436 H         1 FG3         0.0766
     42 H14        11.9800   10.6678   -2.7395 H         1 FG3         0.0449
     43 H15        13.1826   10.8845   -0.1852 H         1 FG3         0.0386
     44 H16        13.8230   10.5932    1.5185 H         1 FG3         0.2136
@<TRIPOS>BOND
     1    1    3 ar 
     2    4    1 1  
     3    1   28 ar 
     4    2    4 1  
     5   24    2 1  
     6    2   26 1  
     7   19    5 1  
     8   21    6 1  
     9   20    7 2  
    10   27    8 2  
    11   27    9 2  
    12   11   10 ar 
    13   10   21 ar 
    14   23   11 ar 
    15   13   12 ar 
    16   22   12 ar 
    17   26   13 ar 
    18   17   14 ar 
    19   14   21 ar 
    20   15   22 ar 
    21   25   15 ar 
    22   24   16 2  
    23   16   25 1  
    24   23   17 ar 
    25   18   20 am 
    26   27   18 am 
    27   22   19 1  
    28   20   24 1  
    29   23   27 1  
    30   25   26 ar 
    31    4   29 1  
    32    4   30 1  
    33    5   31 1  
    34    5   32 1  
    35    5   33 1  
    36    6   34 1  
    37    6   35 1  
    38    6   36 1  
    39   10   37 1  
    40   11   38 1  
    41   12   39 1  
    42   13   40 1  
    43   14   41 1  
    44   15   42 1  
    45   16   43 1  
    46   18   44 1  
@<TRIPOS>SUBSTRUCTURE
     1 FG3         1

