### 
### Created by X-TOOL on Mon Sep 10 21:13:23 2018
### 

@<TRIPOS>MOLECULE
4xtw_ligand
   68    72     1     0     0
SMALL
GAST_HUCK


@<TRIPOS>ATOM
      1 N2         -4.7030    1.6350    5.9630 N.1       1 44M         0.2334
      2 C4         -5.6630   -0.3240   11.3830 C.ar      1 44M         0.1613
      3 C6         -6.3580   -0.7620   13.6240 C.ar      1 44M         0.1298
      4 CBI        -2.1170  -10.0370   13.8260 C.3       1 44M         0.0775
      5 NAU        -0.9500   -9.2030   13.5700 N.am      1 44M        -0.2668
      6 CBA        -0.0190   -9.3280   14.5020 C.2       1 44M         0.2580
      7 OAC         1.0640   -8.7620   14.4970 O.2       1 44M        -0.4008
      8 NAT        -0.4310  -10.1590   15.4430 N.am      1 44M        -0.2671
      9 CBF        -1.7740  -10.6600   15.1950 C.3       1 44M         0.0750
     10 CAO        -2.6150  -10.0570   16.3170 C.3       1 44M         0.0190
     11 SAY        -3.3090   -8.6030   15.6260 S.3       1 44M        -0.1527
     12 CBH        -3.3050   -9.0820   13.9370 C.3       1 44M         0.0302
     13 CAK        -3.2130   -7.8700   13.0160 C.3       1 44M        -0.0388
     14 CAI        -3.5220   -8.2720   11.5780 C.3       1 44M        -0.0499
     15 CAH        -3.6630   -7.0670   10.6530 C.3       1 44M        -0.0360
     16 CAJ        -4.0230   -7.5380    9.2480 C.3       1 44M         0.0388
     17 CAZ        -4.4420   -6.3980    8.3460 C.2       1 44M         0.1971
     18 OAB        -5.5370   -5.8720    8.4720 O.2       1 44M        -0.3954
     19 NAV        -3.5630   -6.0160    7.4210 N.am      1 44M        -0.1416
     20 SBK        -3.8940   -4.8900    6.4520 S.o2      1 44M         0.1391
     21 OAD        -5.0320   -5.2610    5.6570 O.2       1 44M        -0.1307
     22 OAE        -2.7710   -4.6720    5.5860 O.2       1 44M        -0.1307
     23 NAW        -4.2490   -3.5330    7.2450 N.am      1 44M        -0.2288
     24 CAN        -3.0360   -2.7820    7.6110 C.3       1 44M         0.0571
     25 CBE        -3.4150   -1.3070    7.6960 C.3       1 44M         0.1102
     26 OAX        -4.5300   -1.1180    8.5710 O.3       1 44M        -0.3352
     27 CAL        -2.3120   -0.4110    8.2320 C.3       1 44M         0.1462
     28 OAL        -1.5100    0.0980    7.1630 O.3       1 44M        -0.3834
     29 CAM        -3.0660    0.7150    8.9090 C.3       1 44M         0.3003
     30 CBG        -4.4280    0.1340    9.2560 C.3       1 44M         0.2341
     31 N9         -4.5270   -0.1090   10.7160 N.pl3     1 44M        -0.1892
     32 C8         -3.5070   -0.1720   11.5850 C.2       1 44M         0.1124
     33 N7         -3.9970   -0.4210   12.8210 N.2       1 44M        -0.2957
     34 C5         -5.3390   -0.5200   12.7140 C.ar      1 44M         0.1045
     35 N3         -6.9580   -0.3730   10.9940 N.ar      1 44M        -0.2713
     36 C2         -7.9210   -0.6080   11.8920 C.ar      1 44M         0.0533
     37 N1         -7.6350   -0.7990   13.1870 N.ar      1 44M        -0.2698
     38 N6         -6.0820   -0.9590   14.9360 N.pl3     1 44M        -0.3152
     39 N5         -4.0200    1.7320    6.8940 N.1       1 44M         0.1298
     40 N8Q        -3.2220    1.8460    8.0110 N.2       1 44M         0.1779
     41 H1         -2.2852  -10.7999   13.0516 H         1 44M         0.0587
     42 H2         -0.8622   -8.6014   12.7761 H         1 44M         0.1849
     43 H3          0.1194  -10.4152   16.2376 H         1 44M         0.1849
     44 H4         -1.8407  -11.7579   15.1794 H         1 44M         0.0584
     45 H5         -1.9846   -9.8109   17.1842 H         1 44M         0.0399
     46 H6         -3.4069  -10.7553   16.6256 H         1 44M         0.0399
     47 H7         -4.2328   -9.6221   13.6972 H         1 44M         0.0435
     48 H8         -2.1962   -7.4532   13.0655 H         1 44M         0.0277
     49 H9         -3.9373   -7.1097   13.3436 H         1 44M         0.0277
     50 H10        -4.4644   -8.8392   11.5648 H         1 44M         0.0267
     51 H11        -2.7056   -8.9086   11.2063 H         1 44M         0.0267
     52 H12        -2.7111   -6.5166   10.6216 H         1 44M         0.0290
     53 H13        -4.4565   -6.4060   11.0317 H         1 44M         0.0290
     54 H14        -4.8533   -8.2560    9.3183 H         1 44M         0.0503
     55 H15        -3.1460   -8.0336    8.8062 H         1 44M         0.0503
     56 H16        -2.6760   -6.4740    7.3626 H         1 44M         0.2159
     57 H17        -5.1792   -3.2369    7.4621 H         1 44M         0.1690
     58 H18        -2.2600   -2.9263    6.8449 H         1 44M         0.0502
     59 H19        -2.6593   -3.1291    8.5844 H         1 44M         0.0502
     60 H20        -3.6831   -0.9704    6.6837 H         1 44M         0.0641
     61 H21        -1.6764   -0.9510    8.9492 H         1 44M         0.0678
     62 H22        -0.8273    0.6549    7.5182 H         1 44M         0.2101
     63 H23        -2.5391    1.0381    9.8190 H         1 44M         0.1082
     64 H24        -5.2279    0.8174    8.9350 H         1 44M         0.1028
     65 H25        -2.4547   -0.0435   11.3357 H         1 44M         0.1349
     66 H26        -8.9540   -0.6447   11.5654 H         1 44M         0.0996
     67 H27        -6.8471   -1.1378   15.6020 H         1 44M         0.1820
     68 H28        -5.1071   -0.9299   15.2672 H         1 44M         0.1820
@<TRIPOS>BOND
     1   39    1 3  
     2   31    2 1  
     3    2   34 ar 
     4    2   35 ar 
     5   34    3 ar 
     6    3   37 ar 
     7    3   38 1  
     8    4    5 1  
     9    4    9 1  
    10   12    4 1  
    11    5    6 am 
    12    6    7 2  
    13    8    6 am 
    14    9    8 1  
    15   10    9 1  
    16   11   10 1  
    17   12   11 1  
    18   13   12 1  
    19   14   13 1  
    20   15   14 1  
    21   16   15 1  
    22   17   16 1  
    23   17   18 2  
    24   19   17 am 
    25   20   19 am 
    26   20   21 2  
    27   20   22 2  
    28   23   20 am 
    29   24   23 1  
    30   25   24 1  
    31   26   25 1  
    32   27   25 1  
    33   30   26 1  
    34   27   28 1  
    35   29   27 1  
    36   29   30 1  
    37   40   29 1  
    38   30   31 1  
    39   31   32 1  
    40   32   33 2  
    41   33   34 1  
    42   35   36 ar 
    43   36   37 ar 
    44   39   40 2  
    45    4   41 1  
    46    5   42 1  
    47    8   43 1  
    48    9   44 1  
    49   10   45 1  
    50   10   46 1  
    51   12   47 1  
    52   13   48 1  
    53   13   49 1  
    54   14   50 1  
    55   14   51 1  
    56   15   52 1  
    57   15   53 1  
    58   16   54 1  
    59   16   55 1  
    60   19   56 1  
    61   23   57 1  
    62   24   58 1  
    63   24   59 1  
    64   25   60 1  
    65   27   61 1  
    66   28   62 1  
    67   29   63 1  
    68   30   64 1  
    69   32   65 1  
    70   36   66 1  
    71   38   67 1  
    72   38   68 1  
@<TRIPOS>SUBSTRUCTURE
     1 44M         1

