4xtw_ligand
  -I-interpret- 

 68 72  0  0  0  0  0  0  0  0999 V2000
   -4.7030    1.6350    5.9630 N   0  0  0  0  0
   -5.6630   -0.3240   11.3830 C   0  0  0  0  0
   -6.3580   -0.7620   13.6240 C   0  0  0  0  0
   -2.1170  -10.0370   13.8260 C   0  0  0  0  0
   -0.9500   -9.2030   13.5700 N   0  0  0  0  0
   -0.0190   -9.3280   14.5020 C   0  0  0  0  0
    1.0640   -8.7620   14.4970 O   0  0  0  0  0
   -0.4310  -10.1590   15.4430 N   0  0  0  0  0
   -1.7740  -10.6600   15.1950 C   0  0  0  0  0
   -2.6150  -10.0570   16.3170 C   0  0  0  0  0
   -3.3090   -8.6030   15.6260 S   0  0  0  0  0
   -3.3050   -9.0820   13.9370 C   0  0  0  0  0
   -3.2130   -7.8700   13.0160 C   0  0  0  0  0
   -3.5220   -8.2720   11.5780 C   0  0  0  0  0
   -3.6630   -7.0670   10.6530 C   0  0  0  0  0
   -4.0230   -7.5380    9.2480 C   0  0  0  0  0
   -4.4420   -6.3980    8.3460 C   0  0  0  0  0
   -5.5370   -5.8720    8.4720 O   0  0  0  0  0
   -3.5630   -6.0160    7.4210 N   0  0  0  0  0
   -3.8940   -4.8900    6.4520 S   0  0  0  0  0
   -5.0320   -5.2610    5.6570 O   0  0  0  0  0
   -2.7710   -4.6720    5.5860 O   0  0  0  0  0
   -4.2490   -3.5330    7.2450 N   0  0  0  0  0
   -3.0360   -2.7820    7.6110 C   0  0  0  0  0
   -3.4150   -1.3070    7.6960 C   0  0  0  0  0
   -4.5300   -1.1180    8.5710 O   0  0  0  0  0
   -2.3120   -0.4110    8.2320 C   0  0  0  0  0
   -1.5100    0.0980    7.1630 O   0  0  0  0  0
   -3.0660    0.7150    8.9090 C   0  0  0  0  0
   -4.4280    0.1340    9.2560 C   0  0  0  0  0
   -4.5270   -0.1090   10.7160 N   0  0  0  0  0
   -3.5070   -0.1720   11.5850 C   0  0  0  0  0
   -3.9970   -0.4210   12.8210 N   0  0  0  0  0
   -5.3390   -0.5200   12.7140 C   0  0  0  0  0
   -6.9580   -0.3730   10.9940 N   0  0  0  0  0
   -7.9210   -0.6080   11.8920 C   0  0  0  0  0
   -7.6350   -0.7990   13.1870 N   0  0  0  0  0
   -6.0820   -0.9590   14.9360 N   0  0  0  0  0
   -4.0200    1.7320    6.8940 N   0  0  0  0  0
   -3.2220    1.8460    8.0110 N   0  0  0  0  0
   -2.3516  -10.7940   13.0777 H   0  0  0  0  0
   -0.8604   -8.5893   12.7602 H   0  0  0  0  0
    0.1304  -10.4203   16.2535 H   0  0  0  0  0
   -1.9157  -11.7406   15.1778 H   0  0  0  0  0
   -2.0156   -9.8396   17.2010 H   0  0  0  0  0
   -3.3835  -10.7478   16.6638 H   0  0  0  0  0
   -4.2270   -9.5706   13.6219 H   0  0  0  0  0
   -2.2024   -7.4643   13.0623 H   0  0  0  0  0
   -3.9370   -7.1221   13.3394 H   0  0  0  0  0
   -4.4693   -8.8111   11.5753 H   0  0  0  0  0
   -2.6948   -8.8812   11.2136 H   0  0  0  0  0
   -2.7189   -6.5231   10.6213 H   0  0  0  0  0
   -4.4505   -6.4133   11.0281 H   0  0  0  0  0
   -4.8619   -8.2292    9.3291 H   0  0  0  0  0
   -3.1395   -8.0048    8.8125 H   0  0  0  0  0
   -2.6582   -6.4832    7.3614 H   0  0  0  0  0
   -5.1978   -3.2310    7.4664 H   0  0  0  0  0
   -2.2562   -2.9318    6.8643 H   0  0  0  0  0
   -2.6473   -3.1305    8.5678 H   0  0  0  0  0
   -3.6360   -1.0294    6.6654 H   0  0  0  0  0
   -1.6309   -0.9341    8.9032 H   0  0  0  0  0
   -0.8201    0.6608    7.5220 H   0  0  0  0  0
   -2.5351    1.0793    9.7885 H   0  0  0  0  0
   -5.2217    0.8222    8.9654 H   0  0  0  0  0
   -2.4538   -0.0434   11.3355 H   0  0  0  0  0
   -8.9597   -0.6449   11.5636 H   0  0  0  0  0
   -5.1166   -0.9302   15.2640 H   0  0  0  0  0
   -6.8397   -1.1361   15.5956 H   0  0  0  0  0
 39  1  3  0  0  0
 31  2  4  0  0  0
  2 34  4  0  0  0
  2 35  4  0  0  0
 34  3  4  0  0  0
  3 37  4  0  0  0
  3 38  1  0  0  0
  4  5  1  0  0  0
  4  9  1  0  0  0
 12  4  1  0  0  0
  5  6  1  0  0  0
  6  7  2  0  0  0
  8  6  1  0  0  0
  9  8  1  0  0  0
 10  9  1  0  0  0
 11 10  1  0  0  0
 12 11  1  0  0  0
 13 12  1  0  0  0
 14 13  1  0  0  0
 15 14  1  0  0  0
 16 15  1  0  0  0
 17 16  1  0  0  0
 17 18  2  0  0  0
 19 17  1  0  0  0
 20 19  1  0  0  0
 20 21  2  0  0  0
 20 22  2  0  0  0
 23 20  1  0  0  0
 24 23  1  0  0  0
 25 24  1  0  0  0
 26 25  1  0  0  0
 27 25  1  0  0  0
 30 26  1  0  0  0
 27 28  1  0  0  0
 29 27  1  0  0  0
 29 30  1  0  0  0
 40 29  1  0  0  0
 30 31  1  0  0  0
 31 32  4  0  0  0
 32 33  4  0  0  0
 33 34  4  0  0  0
 35 36  4  0  0  0
 36 37  4  0  0  0
 39 40  2  0  0  0
  4 41  1  0  0  0
  5 42  1  0  0  0
  8 43  1  0  0  0
  9 44  1  0  0  0
 10 45  1  0  0  0
 10 46  1  0  0  0
 12 47  1  0  0  0
 13 48  1  0  0  0
 13 49  1  0  0  0
 14 50  1  0  0  0
 14 51  1  0  0  0
 15 52  1  0  0  0
 15 53  1  0  0  0
 16 54  1  0  0  0
 16 55  1  0  0  0
 19 56  1  0  0  0
 23 57  1  0  0  0
 24 58  1  0  0  0
 24 59  1  0  0  0
 25 60  1  0  0  0
 27 61  1  0  0  0
 28 62  1  0  0  0
 29 63  1  0  0  0
 30 64  1  0  0  0
 32 65  1  0  0  0
 36 66  1  0  0  0
 38 67  1  0  0  0
 38 68  1  0  0  0
M  END
$$$$
