1ftm_ligand
  -I-interpret- 

 24 24  0  0  0  0  0  0  0  0999 V2000
   75.0740   27.4930   42.9170 N   0  3  0  0  0
   76.1360   26.4300   42.9670 C   0  0  0  0  0
   76.4420   26.0550   44.4560 C   0  0  0  0  0
   77.3630   25.2540   44.6680 O   0  0  0  0  0
   75.7220   26.5630   45.3460 O   0  0  0  0  0
   77.4080   26.9270   42.2440 C   0  0  0  0  0
   77.2430   27.1260   40.7540 C   0  0  0  0  0
   77.4330   26.1680   39.7080 C   0  0  0  0  0
   76.8220   28.2030   40.0390 C   0  0  0  0  0
   76.3770   29.5860   40.4000 C   0  0  0  0  0
   77.8230   24.9460   40.0650 O   0  0  0  0  0
   77.1790   26.5320   38.4750 N   0  0  0  0  0
   76.7700   27.9040   38.6870 O   0  0  0  0  0
   74.2375   27.1590   43.3956 H   0  0  0  0  0
   75.4167   28.3362   43.3773 H   0  0  0  0  0
   74.8498   27.7024   41.9442 H   0  0  0  0  0
   75.7817   25.5345   42.4565 H   0  0  0  0  0
   75.0800   27.1502   44.9402 H   0  0  0  0  0
   78.1731   26.1629   42.3816 H   0  0  0  0  0
   77.6591   27.8982   42.6703 H   0  0  0  0  0
   75.5023   29.5274   41.0477 H   0  0  0  0  0
   77.1834   30.1011   40.9220 H   0  0  0  0  0
   76.1225   30.1330   39.4922 H   0  0  0  0  0
   77.2497   25.9981   37.6088 H   0  0  0  0  0
  1  2  1  0  0  0
  2  3  1  0  0  0
  2  6  1  0  0  0
  3  4  2  0  0  0
  3  5  1  0  0  0
  6  7  1  0  0  0
  7  8  1  0  0  0
  7  9  2  0  0  0
  8 11  2  0  0  0
  8 12  1  0  0  0
  9 10  1  0  0  0
  9 13  1  0  0  0
 12 13  1  0  0  0
  1 14  1  0  0  0
  1 15  1  0  0  0
  1 16  1  0  0  0
  2 17  1  0  0  0
  5 18  1  0  0  0
  6 19  1  0  0  0
  6 20  1  0  0  0
 10 21  1  0  0  0
 10 22  1  0  0  0
 10 23  1  0  0  0
 12 24  1  0  0  0
M  END
$$$$
