### 
### Created by X-TOOL on Mon Sep 10 21:12:47 2018
### 

@<TRIPOS>MOLECULE
1ftm_ligand
   23    23     1     0     0
SMALL
GAST_HUCK


@<TRIPOS>ATOM
      1 N          75.0740   27.4930   42.9170 N.4       1 AMQ         0.2333
      2 CA         76.1360   26.4300   42.9670 C.3       1 AMQ         0.0299
      3 C          76.4420   26.0550   44.4560 C.2       1 AMQ         0.0853
      4 OT1        77.3630   25.2540   44.6680 O.co2     1 AMQ        -0.5642
      5 OT2        75.7220   26.5630   45.3460 O.co2     1 AMQ        -0.5642
      6 CB         77.4080   26.9270   42.2440 C.3       1 AMQ         0.0201
      7 CG         77.2430   27.1260   40.7540 C.2       1 AMQ         0.0355
      8 CD1        77.4330   26.1680   39.7080 C.2       1 AMQ         0.1867
      9 CD2        76.8220   28.2030   40.0390 C.2       1 AMQ         0.1229
     10 CE2        76.3770   29.5860   40.4000 C.3       1 AMQ         0.0048
     11 OE1        77.8230   24.9460   40.0650 O.2       1 AMQ        -0.4259
     12 NE1        77.1790   26.5320   38.4750 N.am      1 AMQ        -0.1399
     13 OE2        76.7700   27.9040   38.6870 O.3       1 AMQ        -0.1759
     14 H1         74.8812   27.7303   41.9565 H         1 AMQ         0.2011
     15 H2         75.3957   28.3127   43.4076 H         1 AMQ         0.2011
     16 H3         74.2331   27.1487   43.3533 H         1 AMQ         0.2011
     17 H4         75.7660   25.5331   42.4486 H         1 AMQ         0.1035
     18 H5         78.2066   26.1880   42.4059 H         1 AMQ         0.0385
     19 H6         77.7028   27.8889   42.6888 H         1 AMQ         0.0385
     20 H7         76.1198   30.1391   39.4846 H         1 AMQ         0.0455
     21 H8         77.1900   30.1070   40.9269 H         1 AMQ         0.0455
     22 H9         75.4942   29.5282   41.0537 H         1 AMQ         0.0455
     23 H10        77.2483   26.0086   37.6258 H         1 AMQ         0.2313
@<TRIPOS>BOND
     1    1    2 1  
     2    2    3 1  
     3    2    6 1  
     4    3    4 ar 
     5    3    5 ar 
     6    6    7 1  
     7    7    8 1  
     8    7    9 2  
     9    8   11 2  
    10    8   12 am 
    11    9   10 1  
    12    9   13 1  
    13   12   13 1  
    14    1   14 1  
    15    1   15 1  
    16    1   16 1  
    17    2   17 1  
    18    6   18 1  
    19    6   19 1  
    20   10   20 1  
    21   10   21 1  
    22   10   22 1  
    23   12   23 1  
@<TRIPOS>SUBSTRUCTURE
     1 AMQ         1

