3zln_ligand
  -I-interpret- 

 48 52  0  0  0  0  0  0  0  0999 V2000
  -22.8520  -17.8700   10.7470 O   0  0  0  0  0
  -22.9250  -17.5760   11.9690 C   0  0  0  0  0
  -23.5920  -18.2650   12.7710 O   0  0  0  0  0
  -22.2330  -16.3340   12.4690 C   0  0  0  0  0
  -21.3010  -15.7440   11.7060 N   0  0  0  0  0
  -22.5720  -15.7870   13.7020 C   0  0  0  0  0
  -21.9360  -14.6250   14.1170 C   0  0  0  0  0
  -20.9790  -14.0350   13.3050 C   0  0  0  0  0
  -20.6880  -14.6160   12.0780 C   0  0  0  0  0
  -19.7270  -14.0760   11.2350 C   0  0  0  0  0
  -19.7100  -14.4340    9.8940 C   0  0  0  0  0
  -18.7240  -13.9080    9.0510 C   0  0  0  0  0
  -17.7600  -13.0300    9.5480 C   0  0  0  0  0
  -16.6920  -12.4660    8.6270 C   0  0  0  0  0
  -15.4140  -12.2290    9.4150 C   0  0  0  0  0
  -15.6780  -11.1900   10.4980 C   0  0  0  0  0
  -18.7560  -13.2060   11.7310 C   0  0  0  0  0
  -17.7780  -12.6820   10.8910 C   0  0  0  0  0
  -16.7280  -11.7470   11.4270 C   0  0  0  0  0
  -16.7190  -11.3670   12.6320 N   0  0  0  0  0
  -15.8020  -10.5270   13.0920 N   0  0  0  0  0
  -16.1430   -9.6960   14.1150 C   0  0  0  0  0
  -17.7920   -9.5270   14.6760 S   0  0  0  0  0
  -17.1130   -8.4180   15.7620 C   0  0  0  0  0
  -17.9020   -7.7620   16.6920 C   0  0  0  0  0
  -17.3240   -6.8540   17.5720 C   0  0  0  0  0
  -15.2020   -8.9320   14.7090 N   0  0  0  0  0
  -15.7460   -8.1770   15.7040 C   0  0  0  0  0
  -15.1670   -7.2720   16.5940 C   0  0  0  0  0
  -15.9540   -6.6080   17.5240 C   0  0  0  0  0
  -22.2983  -17.2277   10.2970 H   0  0  0  0  0
  -23.3241  -16.2625   14.3316 H   0  0  0  0  0
  -22.1881  -14.1775   15.0784 H   0  0  0  0  0
  -20.4634  -13.1295   13.6250 H   0  0  0  0  0
  -20.4596  -15.1203    9.4999 H   0  0  0  0  0
  -18.7091  -14.1866    7.9973 H   0  0  0  0  0
  -17.0383  -11.5224    8.2054 H   0  0  0  0  0
  -16.4958  -13.1748    7.8226 H   0  0  0  0  0
  -14.6330  -11.8688    8.7454 H   0  0  0  0  0
  -15.0897  -13.1624    9.8751 H   0  0  0  0  0
  -16.0246  -10.2581   10.0513 H   0  0  0  0  0
  -14.7616  -10.9763   11.0481 H   0  0  0  0  0
  -18.7633  -12.9340   12.7865 H   0  0  0  0  0
  -14.8650  -10.5040   12.6897 H   0  0  0  0  0
  -18.9736   -7.9571   16.7340 H   0  0  0  0  0
  -17.9446   -6.3334   18.3013 H   0  0  0  0  0
  -14.0936   -7.0861   16.5587 H   0  0  0  0  0
  -15.5016   -5.8963   18.2146 H   0  0  0  0  0
  1  2  1  0  0  0
  2  3  2  0  0  0
  2  4  1  0  0  0
  4  5  4  0  0  0
  4  6  4  0  0  0
  5  9  4  0  0  0
  6  7  4  0  0  0
  7  8  4  0  0  0
  8  9  4  0  0  0
  9 10  1  0  0  0
 10 11  4  0  0  0
 10 17  4  0  0  0
 11 12  4  0  0  0
 12 13  4  0  0  0
 13 14  1  0  0  0
 13 18  4  0  0  0
 14 15  1  0  0  0
 15 16  1  0  0  0
 16 19  1  0  0  0
 17 18  4  0  0  0
 18 19  1  0  0  0
 19 20  2  0  0  0
 20 21  1  0  0  0
 21 22  1  0  0  0
 22 23  4  0  0  0
 22 27  4  0  0  0
 23 24  4  0  0  0
 24 25  4  0  0  0
 24 28  4  0  0  0
 25 26  4  0  0  0
 26 30  4  0  0  0
 27 28  4  0  0  0
 28 29  4  0  0  0
 29 30  4  0  0  0
  1 31  1  0  0  0
  6 32  1  0  0  0
  7 33  1  0  0  0
  8 34  1  0  0  0
 11 35  1  0  0  0
 12 36  1  0  0  0
 14 37  1  0  0  0
 14 38  1  0  0  0
 15 39  1  0  0  0
 15 40  1  0  0  0
 16 41  1  0  0  0
 16 42  1  0  0  0
 17 43  1  0  0  0
 21 44  1  0  0  0
 25 45  1  0  0  0
 26 46  1  0  0  0
 29 47  1  0  0  0
 30 48  1  0  0  0
M  END
$$$$
