### 
### Created by X-TOOL on Mon Sep 10 21:13:14 2018
### 

@<TRIPOS>MOLECULE
3zln_ligand
   47    51     1     0     0
SMALL
GAST_HUCK


@<TRIPOS>ATOM
      1 O82       -22.8520  -17.8700   10.7470 O.co2     1 H0Y        -0.5571
      2 C28       -22.9250  -17.5760   11.9690 C.2       1 H0Y         0.0806
      3 O81       -23.5920  -18.2650   12.7710 O.co2     1 H0Y        -0.5571
      4 C24       -22.2330  -16.3340   12.4690 C.ar      1 H0Y         0.0800
      5 N23       -21.3010  -15.7440   11.7060 N.ar      1 H0Y        -0.2793
      6 C25       -22.5720  -15.7870   13.7020 C.ar      1 H0Y        -0.0214
      7 C26       -21.9360  -14.6250   14.1170 C.ar      1 H0Y        -0.0399
      8 C27       -20.9790  -14.0350   13.3050 C.ar      1 H0Y        -0.0263
      9 C22       -20.6880  -14.6160   12.0780 C.ar      1 H0Y         0.0518
     10 C19       -19.7270  -14.0760   11.2350 C.ar      1 H0Y        -0.0045
     11 C20       -19.7100  -14.4340    9.8940 C.ar      1 H0Y        -0.0558
     12 C21       -18.7240  -13.9080    9.0510 C.ar      1 H0Y        -0.0548
     13 C16       -17.7600  -13.0300    9.5480 C.ar      1 H0Y        -0.0279
     14 C15       -16.6920  -12.4660    8.6270 C.3       1 H0Y        -0.0138
     15 C14       -15.4140  -12.2290    9.4150 C.3       1 H0Y        -0.0308
     16 C13       -15.6780  -11.1900   10.4980 C.3       1 H0Y        -0.0022
     17 C18       -18.7560  -13.2060   11.7310 C.ar      1 H0Y        -0.0456
     18 C17       -17.7780  -12.6820   10.8910 C.ar      1 H0Y         0.0052
     19 C12       -16.7280  -11.7470   11.4270 C.2       1 H0Y         0.0488
     20 N11       -16.7190  -11.3670   12.6320 N.2       1 H0Y        -0.2041
     21 N10       -15.8020  -10.5270   13.0920 N.pl3     1 H0Y        -0.1848
     22 C8        -16.1430   -9.6960   14.1150 C.2       1 H0Y         0.2135
     23 S9        -17.7920   -9.5270   14.6760 S.3       1 H0Y         0.0313
     24 C4        -17.1130   -8.4180   15.7620 C.ar      1 H0Y         0.0496
     25 C3        -17.9020   -7.7620   16.6920 C.ar      1 H0Y        -0.0530
     26 C2        -17.3240   -6.8540   17.5720 C.ar      1 H0Y        -0.0745
     27 N7        -15.2020   -8.9320   14.7090 N.2       1 H0Y        -0.3027
     28 C5        -15.7460   -8.1770   15.7040 C.ar      1 H0Y         0.0118
     29 C6        -15.1670   -7.2720   16.5940 C.ar      1 H0Y        -0.0629
     30 C1        -15.9540   -6.6080   17.5240 C.ar      1 H0Y        -0.0755
     31 H1        -23.3199  -16.2599   14.3281 H         1 H0Y         0.0731
     32 H2        -22.1867  -14.1800   15.0731 H         1 H0Y         0.0737
     33 H3        -20.4663  -13.1345   13.6232 H         1 H0Y         0.0725
     34 H4        -20.4554  -15.1165    9.5021 H         1 H0Y         0.0631
     35 H5        -18.7092  -14.1851    8.0031 H         1 H0Y         0.0566
     36 H6        -17.0413  -11.5140    8.2008 H         1 H0Y         0.0444
     37 H7        -16.4941  -13.1808    7.8146 H         1 H0Y         0.0444
     38 H8        -14.6272  -11.8635    8.7387 H         1 H0Y         0.0313
     39 H9        -15.0889  -13.1711    9.8806 H         1 H0Y         0.0313
     40 H10       -16.0399  -10.2572   10.0411 H         1 H0Y         0.0448
     41 H11       -14.7523  -10.9893   11.0573 H         1 H0Y         0.0448
     42 H12       -18.7633  -12.9355   12.7807 H         1 H0Y         0.0638
     43 H13       -14.8558  -10.5038   12.6857 H         1 H0Y         0.2403
     44 H14       -18.9677   -7.9560   16.7337 H         1 H0Y         0.0557
     45 H15       -17.9412   -6.3362   18.2973 H         1 H0Y         0.0534
     46 H16       -14.0995   -7.0871   16.5589 H         1 H0Y         0.0537
     47 H17       -15.5041   -5.9002   18.2108 H         1 H0Y         0.0546
@<TRIPOS>BOND
     1    1    2 ar 
     2    2    3 ar 
     3    2    4 1  
     4    4    5 ar 
     5    4    6 ar 
     6    5    9 ar 
     7    6    7 ar 
     8    7    8 ar 
     9    8    9 ar 
    10    9   10 1  
    11   10   11 ar 
    12   10   17 ar 
    13   11   12 ar 
    14   12   13 ar 
    15   13   14 1  
    16   13   18 ar 
    17   14   15 1  
    18   15   16 1  
    19   16   19 1  
    20   17   18 ar 
    21   18   19 1  
    22   19   20 2  
    23   20   21 1  
    24   21   22 1  
    25   22   23 1  
    26   22   27 2  
    27   23   24 1  
    28   24   25 ar 
    29   24   28 ar 
    30   25   26 ar 
    31   26   30 ar 
    32   27   28 1  
    33   28   29 ar 
    34   29   30 ar 
    35    6   31 1  
    36    7   32 1  
    37    8   33 1  
    38   11   34 1  
    39   12   35 1  
    40   14   36 1  
    41   14   37 1  
    42   15   38 1  
    43   15   39 1  
    44   16   40 1  
    45   16   41 1  
    46   17   42 1  
    47   21   43 1  
    48   25   44 1  
    49   26   45 1  
    50   29   46 1  
    51   30   47 1  
@<TRIPOS>SUBSTRUCTURE
     1 H0Y         1

