### 
### Created by X-TOOL on Mon Sep 10 21:12:50 2018
### 

@<TRIPOS>MOLECULE
1ps3_ligand
   28    29     1     0     0
SMALL
GAST_HUCK


@<TRIPOS>ATOM
      1 C4         31.4730   66.7250    6.8040 C.3       1 KIF         0.1090
      2 O4         31.7420   67.6100    5.7130 O.3       1 KIF        -0.3868
      3 C3         32.6900   66.7920    7.8050 C.3       1 KIF         0.1133
      4 O3         33.8510   66.3060    7.1450 O.3       1 KIF        -0.3864
      5 C2         32.5080   66.1550    9.2240 C.3       1 KIF         0.1280
      6 O2         33.2470   65.3230    9.6780 O.3       1 KIF        -0.3847
      7 C1         30.9360   65.5550    9.3520 C.3       1 KIF         0.1599
      8 N9         30.6120   65.4940   10.7760 N.am      1 KIF        -0.2491
      9 C8         29.6480   66.3270   11.0980 C.2       1 KIF         0.2867
     10 O8         29.2090   66.4430   12.2430 O.2       1 KIF        -0.3583
     11 C7         29.2300   67.0570    9.8380 C.2       1 KIF         0.2894
     12 O7         28.3440   67.9250    9.7440 O.2       1 KIF        -0.3581
     13 N          30.0150   66.5810    8.8480 N.am      1 KIF        -0.2273
     14 C5         30.0950   67.1610    7.4490 C.3       1 KIF         0.0996
     15 C6         28.9260   66.6580    6.5580 C.3       1 KIF         0.0701
     16 O6         27.6460   66.9110    7.1600 O.3       1 KIF        -0.3926
     17 H1         31.3790   65.6935    6.4335 H         1 KIF         0.0644
     18 H2         32.5404   67.3382    5.2756 H         1 KIF         0.2100
     19 H3         32.8580   67.8625    7.9944 H         1 KIF         0.0647
     20 H4         34.0295   66.8445    6.3830 H         1 KIF         0.2100
     21 H5         32.5940   67.0061    9.9155 H         1 KIF         0.0665
     22 H6         34.1269   65.6772    9.7301 H         1 KIF         0.2101
     23 H7         30.8201   64.5876    8.8413 H         1 KIF         0.0861
     24 H8         31.0698   64.8898   11.4281 H         1 KIF         0.1890
     25 H9         30.0493   68.2583    7.5111 H         1 KIF         0.0610
     26 H10        29.0379   65.5748    6.4026 H         1 KIF         0.0581
     27 H11        28.9708   67.1742    5.5877 H         1 KIF         0.0581
     28 H12        27.5968   66.4637    7.9967 H         1 KIF         0.2095
@<TRIPOS>BOND
     1    1    2 1  
     2    1    3 1  
     3    1   14 1  
     4    3    4 1  
     5    3    5 1  
     6    5    6 1  
     7    5    7 1  
     8    7    8 1  
     9    7   13 1  
    10    8    9 am 
    11    9   10 2  
    12    9   11 1  
    13   11   12 2  
    14   11   13 am 
    15   13   14 1  
    16   14   15 1  
    17   15   16 1  
    18    1   17 1  
    19    2   18 1  
    20    3   19 1  
    21    4   20 1  
    22    5   21 1  
    23    6   22 1  
    24    7   23 1  
    25    8   24 1  
    26   14   25 1  
    27   15   26 1  
    28   15   27 1  
    29   16   28 1  
@<TRIPOS>SUBSTRUCTURE
     1 KIF         1

