1ps3_ligand
  -I-interpret- 

 28 29  0  0  0  0  0  0  0  0999 V2000
   31.4730   66.7250    6.8040 C   0  0  0  0  0
   31.7420   67.6100    5.7130 O   0  0  0  0  0
   32.6900   66.7920    7.8050 C   0  0  0  0  0
   33.8510   66.3060    7.1450 O   0  0  0  0  0
   32.5080   66.1550    9.2240 C   0  0  0  0  0
   33.2470   65.3230    9.6780 O   0  0  0  0  0
   30.9360   65.5550    9.3520 C   0  0  0  0  0
   30.6120   65.4940   10.7760 N   0  0  0  0  0
   29.6480   66.3270   11.0980 C   0  0  0  0  0
   29.2090   66.4430   12.2430 O   0  0  0  0  0
   29.2300   67.0570    9.8380 C   0  0  0  0  0
   28.3440   67.9250    9.7440 O   0  0  0  0  0
   30.0150   66.5810    8.8480 N   0  0  0  0  0
   30.0950   67.1610    7.4490 C   0  0  0  0  0
   28.9260   66.6580    6.5580 C   0  0  0  0  0
   27.6460   66.9110    7.1600 O   0  0  0  0  0
   31.3741   65.6848    6.4937 H   0  0  0  0  0
   32.5752   67.3666    5.3029 H   0  0  0  0  0
   32.7845   67.8470    8.0623 H   0  0  0  0  0
   33.9243   66.7205    6.2822 H   0  0  0  0  0
   32.7778   67.0178    9.8330 H   0  0  0  0  0
   34.1529   65.6352    9.6197 H   0  0  0  0  0
   30.8583   64.6016    8.8295 H   0  0  0  0  0
   31.0790   64.8777   11.4412 H   0  0  0  0  0
   30.0226   68.2467    7.5138 H   0  0  0  0  0
   29.0351   65.5814    6.4268 H   0  0  0  0  0
   28.9676   67.1897    5.6074 H   0  0  0  0  0
   26.9519   66.5871    6.5814 H   0  0  0  0  0
  1  2  1  0  0  0
  1  3  1  0  0  0
  1 14  1  0  0  0
  3  4  1  0  0  0
  3  5  1  0  0  0
  5  6  1  0  0  0
  5  7  1  0  0  0
  7  8  1  0  0  0
  7 13  1  0  0  0
  8  9  1  0  0  0
  9 10  2  0  0  0
  9 11  1  0  0  0
 11 12  2  0  0  0
 11 13  1  0  0  0
 13 14  1  0  0  0
 14 15  1  0  0  0
 15 16  1  0  0  0
  1 17  1  0  0  0
  2 18  1  0  0  0
  3 19  1  0  0  0
  4 20  1  0  0  0
  5 21  1  0  0  0
  6 22  1  0  0  0
  7 23  1  0  0  0
  8 24  1  0  0  0
 14 25  1  0  0  0
 15 26  1  0  0  0
 15 27  1  0  0  0
 16 28  1  0  0  0
M  END
$$$$
