### 
### Created by X-TOOL on Mon Sep 10 21:13:33 2018
### 

@<TRIPOS>MOLECULE
5os2_ligand
   37    38     1     0     0
SMALL
GAST_HUCK


@<TRIPOS>ATOM
      1 C12       -12.1310   14.9710  -16.7760 C.3       1 A7K         0.0257
      2 C13       -11.8170   16.3650  -20.3650 C.3       1 A7K         0.0471
      3 C11       -11.6690   15.9030  -17.8840 C.3       1 A7K        -0.0285
      4 C10       -12.2120   15.4410  -19.2360 C.3       1 A7K        -0.0143
      5 C9        -11.7670   14.0070  -19.4860 C.3       1 A7K        -0.0285
      6 C8        -12.3140   13.1200  -18.4160 C.3       1 A7K         0.0257
      7 C7         -9.1490   12.5130  -17.5810 C.3       1 A7K        -0.0048
      8 C4        -11.3060   12.5670  -16.2030 C.ar      1 A7K         0.0477
      9 C5        -10.0300   12.0270  -16.4520 C.ar      1 A7K         0.0196
     10 C6         -9.5550   11.0490  -15.5770 C.ar      1 A7K        -0.0667
     11 C3        -12.0630   12.0950  -15.1340 C.ar      1 A7K        -0.0505
     12 C2        -11.5680   11.1150  -14.3000 C.ar      1 A7K        -0.0807
     13 C1        -10.3190   10.5980  -14.5160 C.ar      1 A7K        -0.0818
     14 N1         -9.3730   11.7930  -18.8600 N.4       1 A7K         0.2290
     15 N2        -11.8360   13.5600  -17.0970 N.pl3     1 A7K        -0.3117
     16 O1        -12.1470   15.6770  -21.5600 O.3       1 A7K        -0.3947
     17 H1        -13.2164   15.0872  -16.6406 H         1 A7K         0.0511
     18 H2        -11.6141   15.2409  -15.8433 H         1 A7K         0.0511
     19 H3        -10.7377   16.5743  -20.3290 H         1 A7K         0.0560
     20 H4        -12.3762   17.3100  -20.3001 H         1 A7K         0.0560
     21 H5        -10.5696   15.9071  -17.9182 H         1 A7K         0.0287
     22 H6        -12.0332   16.9200  -17.6765 H         1 A7K         0.0287
     23 H7        -13.3104   15.4488  -19.1781 H         1 A7K         0.0324
     24 H8        -10.6682   13.9575  -19.4765 H         1 A7K         0.0287
     25 H9        -12.1407   13.6729  -20.4652 H         1 A7K         0.0287
     26 H10       -11.9827   12.0867  -18.5962 H         1 A7K         0.0511
     27 H11       -13.4130   13.1615  -18.4364 H         1 A7K         0.0511
     28 H12        -8.0981   12.3782  -17.2852 H         1 A7K         0.0950
     29 H13        -9.3499   13.5822  -17.7437 H         1 A7K         0.0950
     30 H14        -8.5658   10.6338  -15.7323 H         1 A7K         0.0521
     31 H15       -13.0517   12.5022  -14.9556 H         1 A7K         0.0493
     32 H16       -12.1682   10.7537  -13.4728 H         1 A7K         0.0525
     33 H17        -9.9280    9.8337  -13.8542 H         1 A7K         0.0487
     34 H18        -8.7573   12.1640  -19.5667 H         1 A7K         0.2005
     35 H19       -10.3304   11.9148  -19.1510 H         1 A7K         0.2005
     36 H20        -9.1833   10.8115  -18.7308 H         1 A7K         0.2005
     37 H21       -11.9181   16.2161  -22.3080 H         1 A7K         0.2094
@<TRIPOS>BOND
     1    1    3 1  
     2   15    1 1  
     3    4    2 1  
     4    2   16 1  
     5    3    4 1  
     6    5    4 1  
     7    6    5 1  
     8   15    6 1  
     9    9    7 1  
    10    7   14 1  
    11    8    9 ar 
    12    8   11 ar 
    13    8   15 1  
    14    9   10 ar 
    15   10   13 ar 
    16   11   12 ar 
    17   12   13 ar 
    18    1   17 1  
    19    1   18 1  
    20    2   19 1  
    21    2   20 1  
    22    3   21 1  
    23    3   22 1  
    24    4   23 1  
    25    5   24 1  
    26    5   25 1  
    27    6   26 1  
    28    6   27 1  
    29    7   28 1  
    30    7   29 1  
    31   10   30 1  
    32   11   31 1  
    33   12   32 1  
    34   13   33 1  
    35   14   34 1  
    36   14   35 1  
    37   14   36 1  
    38   16   37 1  
@<TRIPOS>SUBSTRUCTURE
     1 A7K         1

