5os2_ligand
  -I-interpret- 

 37 38  0  0  0  0  0  0  0  0999 V2000
  -12.1310   14.9710  -16.7760 C   0  0  0  0  0
  -11.8170   16.3650  -20.3650 C   0  0  0  0  0
  -11.6690   15.9030  -17.8840 C   0  0  0  0  0
  -12.2120   15.4410  -19.2360 C   0  0  0  0  0
  -11.7670   14.0070  -19.4860 C   0  0  0  0  0
  -12.3140   13.1200  -18.4160 C   0  0  0  0  0
   -9.1490   12.5130  -17.5810 C   0  0  0  0  0
  -11.3060   12.5670  -16.2030 C   0  0  0  0  0
  -10.0300   12.0270  -16.4520 C   0  0  0  0  0
   -9.5550   11.0490  -15.5770 C   0  0  0  0  0
  -12.0630   12.0950  -15.1340 C   0  0  0  0  0
  -11.5680   11.1150  -14.3000 C   0  0  0  0  0
  -10.3190   10.5980  -14.5160 C   0  0  0  0  0
   -9.3730   11.7930  -18.8600 N   0  3  0  0  0
  -11.8360   13.5600  -17.0970 N   0  0  0  0  0
  -12.1470   15.6770  -21.5600 O   0  0  0  0  0
  -13.2093   15.0804  -16.6602 H   0  0  0  0  0
  -11.6018   15.2345  -15.8603 H   0  0  0  0  0
  -10.7548   16.6066  -20.3267 H   0  0  0  0  0
  -12.3406   17.3187  -20.2988 H   0  0  0  0  0
  -10.5796   15.8967  -17.9198 H   0  0  0  0  0
  -12.0398   16.9072  -17.6787 H   0  0  0  0  0
  -13.3010   15.4751  -19.2041 H   0  0  0  0  0
  -10.6781   13.9583  -19.4758 H   0  0  0  0  0
  -12.1380   13.6761  -20.4560 H   0  0  0  0  0
  -11.9788   12.0982  -18.5940 H   0  0  0  0  0
  -13.4028   13.1683  -18.4349 H   0  0  0  0  0
   -8.1139   12.3413  -17.2857 H   0  0  0  0  0
   -9.3846   13.5635  -17.7511 H   0  0  0  0  0
   -8.5603   10.6315  -15.7332 H   0  0  0  0  0
  -13.0571   12.5044  -14.9546 H   0  0  0  0  0
  -12.1715   10.7517  -13.4682 H   0  0  0  0  0
   -9.9259    9.8294  -13.8505 H   0  0  0  0  0
   -8.7495   12.1692  -19.5743 H   0  0  0  0  0
   -9.1808   10.8000  -18.7280 H   0  0  0  0  0
  -10.3420   11.9169  -19.1533 H   0  0  0  0  0
  -11.9157   16.2218  -22.3159 H   0  0  0  0  0
  1  3  1  0  0  0
 15  1  1  0  0  0
  4  2  1  0  0  0
  2 16  1  0  0  0
  3  4  1  0  0  0
  5  4  1  0  0  0
  6  5  1  0  0  0
 15  6  1  0  0  0
  9  7  1  0  0  0
  7 14  1  0  0  0
  8  9  4  0  0  0
  8 11  4  0  0  0
  8 15  1  0  0  0
  9 10  4  0  0  0
 10 13  4  0  0  0
 11 12  4  0  0  0
 12 13  4  0  0  0
  1 17  1  0  0  0
  1 18  1  0  0  0
  2 19  1  0  0  0
  2 20  1  0  0  0
  3 21  1  0  0  0
  3 22  1  0  0  0
  4 23  1  0  0  0
  5 24  1  0  0  0
  5 25  1  0  0  0
  6 26  1  0  0  0
  6 27  1  0  0  0
  7 28  1  0  0  0
  7 29  1  0  0  0
 10 30  1  0  0  0
 11 31  1  0  0  0
 12 32  1  0  0  0
 13 33  1  0  0  0
 14 34  1  0  0  0
 14 35  1  0  0  0
 14 36  1  0  0  0
 16 37  1  0  0  0
M  END
$$$$
