### 
### Created by X-TOOL on Mon Aug  2 16:14:25 2021
### 

@<TRIPOS>MOLECULE
6j3p_ligand
   56    60     1     0     0
SMALL
GAST_HUCK


@<TRIPOS>ATOM
      1 C7        -14.8340   -6.1940   15.0030 C.3       1 B8O         0.0278
      2 C8        -14.8280   -7.6670   15.3380 C.3       1 B8O        -0.0211
      3 C6        -11.0660   -5.6500   14.2890 C.ar      1 B8O         0.1137
      4 C10       -16.6790   -8.0980   14.2320 C.3       1 B8O        -0.0077
      5 N9        -16.0410   -8.2240   15.3900 N.4       1 B8O         0.2363
      6 C5        -12.5130   -6.1970   14.3850 C.ar      1 B8O        -0.0394
      7 C4        -13.4590   -5.5650   14.9440 C.ar      1 B8O        -0.0544
      8 C1        -10.9140   -4.3540   14.8890 C.ar      1 B8O         0.1127
      9 C3        -13.3450   -4.4820   15.4680 C.ar      1 B8O        -0.0797
     10 C2        -12.2340   -3.8310   15.5220 C.ar      1 B8O        -0.0479
     11 C11       -16.8820   -6.6280   13.8420 C.3       1 B8O         0.0769
     12 C12       -15.5370   -6.0220   13.6750 C.3       1 B8O        -0.0084
     13 C14       -16.0440   -9.4680   15.7160 C.3       1 B8O        -0.0429
     14 C15       -18.6050   -5.6200   12.5040 C.cat     1 B8O         0.1902
     15 C17       -20.3700   -4.6070   10.9550 C.2       1 B8O         0.3044
     16 C18       -20.6480   -3.7330   11.9920 C.2       1 B8O         0.2802
     17 C19       -19.8850   -3.8500   13.2510 C.2       1 B8O         0.1883
     18 C22       -21.3570   -2.1750   13.3790 C.2       1 B8O         0.1042
     19 C23       -20.5000   -2.7380   14.0280 C.2       1 B8O         0.0510
     20 C26        -8.8450   -5.5070   13.4100 C.3       1 B8O         0.0948
     21 C27        -8.7420   -4.4050   14.3660 C.3       1 B8O         0.0937
     22 C29       -19.0080   -6.5160   10.2030 C.3       1 B8O         0.0212
     23 N13       -17.6380   -6.5770   12.6340 N.pl3     1 B8O        -0.3161
     24 N16       -19.3820   -5.5350   11.2110 N.am      1 B8O        -0.2334
     25 N20       -18.9700   -4.7180   13.4840 N.pl3     1 B8O        -0.2486
     26 N21       -21.5080   -2.6380   12.2580 N.pl3     1 B8O        -0.1804
     27 O24       -21.0020   -4.6440    9.8240 O.2       1 B8O        -0.3391
     28 O25       -10.0140   -6.2980   13.5990 O.3       1 B8O        -0.3207
     29 O28        -9.7270   -3.7690   14.8800 O.3       1 B8O        -0.3236
     30 H1        -15.4080   -5.6696   15.7811 H         1 B8O         0.0492
     31 H2        -14.3478   -7.7952   16.3193 H         1 B8O         0.0838
     32 H3        -14.2404   -8.1924   14.5708 H         1 B8O         0.0838
     33 H4        -17.6632   -8.5822   14.3147 H         1 B8O         0.0839
     34 H5        -16.0906   -8.5952   13.4468 H         1 B8O         0.0839
     35 H6        -16.5633   -7.7248   16.0929 H         1 B8O         0.2033
     36 H7        -12.7266   -7.1679   13.9528 H         1 B8O         0.0450
     37 H8        -14.2243   -4.0341   15.9166 H         1 B8O         0.0436
     38 H9        -12.2193   -2.8747   16.0323 H         1 B8O         0.0493
     39 H10       -17.4286   -6.0973   14.6354 H         1 B8O         0.0622
     40 H11       -14.9813   -6.5388   12.8787 H         1 B8O         0.0315
     41 H12       -15.6272   -4.9544   13.4258 H         1 B8O         0.0315
     42 H13       -15.5197   -9.5971   16.6744 H         1 B8O         0.0778
     43 H14       -15.5329  -10.0525   14.9368 H         1 B8O         0.0778
     44 H15       -17.0819   -9.8184   15.8157 H         1 B8O         0.0778
     45 H16       -21.9372   -1.3358   13.7598 H         1 B8O         0.1564
     46 H17       -20.2179   -2.4662   15.0441 H         1 B8O         0.0576
     47 H18        -7.9621   -6.1533   13.5230 H         1 B8O         0.0636
     48 H19        -8.8653   -5.0885   12.3929 H         1 B8O         0.0636
     49 H20        -8.1337   -3.6395   13.8620 H         1 B8O         0.0633
     50 H21        -8.1828   -4.8136   15.2206 H         1 B8O         0.0633
     51 H22       -18.2084   -7.1603   10.5974 H         1 B8O         0.0481
     52 H23       -18.6498   -5.9972    9.3016 H         1 B8O         0.0481
     53 H24       -19.8831   -7.1319    9.9483 H         1 B8O         0.0481
     54 H25       -17.4587   -7.2486   11.8739 H         1 B8O         0.1792
     55 H26       -18.5066   -4.7424   14.4036 H         1 B8O         0.2270
     56 H27       -22.1888   -2.2710   11.5778 H         1 B8O         0.2655
@<TRIPOS>BOND
     1    1    2 1  
     2    7    1 1  
     3    1   12 1  
     4    2    5 1  
     5    3    6 ar 
     6    3    8 ar 
     7   28    3 1  
     8    5    4 1  
     9   11    4 1  
    10    5   13 1  
    11    6    7 ar 
    12    7    9 ar 
    13    8   10 ar 
    14    8   29 1  
    15   10    9 ar 
    16   12   11 1  
    17   11   23 1  
    18   23   14 ar 
    19   14   24 ar 
    20   14   25 ar 
    21   15   16 1  
    22   24   15 am 
    23   15   27 2  
    24   17   16 2  
    25   16   26 1  
    26   17   19 1  
    27   25   17 1  
    28   19   18 2  
    29   18   26 1  
    30   20   21 1  
    31   20   28 1  
    32   21   29 1  
    33   24   22 1  
    34    1   30 1  
    35    2   31 1  
    36    2   32 1  
    37    4   33 1  
    38    4   34 1  
    39    5   35 1  
    40    6   36 1  
    41    9   37 1  
    42   10   38 1  
    43   11   39 1  
    44   12   40 1  
    45   12   41 1  
    46   13   42 1  
    47   13   43 1  
    48   13   44 1  
    49   18   45 1  
    50   19   46 1  
    51   20   47 1  
    52   20   48 1  
    53   21   49 1  
    54   21   50 1  
    55   22   51 1  
    56   22   52 1  
    57   22   53 1  
    58   23   54 1  
    59   25   55 1  
    60   26   56 1  
@<TRIPOS>SUBSTRUCTURE
     1 B8O         1

