6j3p_ligand
  -I-interpret- 

 55 59  0  0  0  0  0  0  0  0999 V2000
  -14.8340   -6.1940   15.0030 C   0  0  0  0  0
  -14.8280   -7.6670   15.3380 C   0  0  0  0  0
  -11.0660   -5.6500   14.2890 C   0  0  0  0  0
  -16.6790   -8.0980   14.2320 C   0  0  0  0  0
  -16.0410   -8.2240   15.3900 N   0  3  0  0  0
  -12.5130   -6.1970   14.3850 C   0  0  0  0  0
  -13.4590   -5.5650   14.9440 C   0  0  0  0  0
  -10.9140   -4.3540   14.8890 C   0  0  0  0  0
  -13.3450   -4.4820   15.4680 C   0  0  0  0  0
  -12.2340   -3.8310   15.5220 C   0  0  0  0  0
  -16.8820   -6.6280   13.8420 C   0  0  0  0  0
  -15.5370   -6.0220   13.6750 C   0  0  0  0  0
  -16.0440   -9.4680   15.7160 C   0  0  0  0  0
  -18.6050   -5.6200   12.5040 C   0  0  0  0  0
  -20.3700   -4.6070   10.9550 C   0  0  0  0  0
  -20.6480   -3.7330   11.9920 C   0  0  0  0  0
  -19.8850   -3.8500   13.2510 C   0  0  0  0  0
  -21.3570   -2.1750   13.3790 C   0  0  0  0  0
  -20.5000   -2.7380   14.0280 C   0  0  0  0  0
   -8.8450   -5.5070   13.4100 C   0  0  0  0  0
   -8.7420   -4.4050   14.3660 C   0  0  0  0  0
  -19.0080   -6.5160   10.2030 C   0  0  0  0  0
  -17.6380   -6.5770   12.6340 N   0  0  0  0  0
  -19.3820   -5.5350   11.2110 N   0  0  0  0  0
  -18.9700   -4.7180   13.4840 N   0  0  0  0  0
  -21.5080   -2.6380   12.2580 N   0  0  0  0  0
  -21.0020   -4.6440    9.8240 O   0  0  0  0  0
  -10.0140   -6.2980   13.5990 O   0  0  0  0  0
   -9.7270   -3.7690   14.8800 O   0  0  0  0  0
  -15.3536   -5.6769   15.8097 H   0  0  0  0  0
  -14.3857   -7.7687   16.3290 H   0  0  0  0  0
  -14.2762   -8.1737   14.5463 H   0  0  0  0  0
  -17.6603   -8.5619   14.3322 H   0  0  0  0  0
  -16.0771   -8.5750   13.4585 H   0  0  0  0  0
  -16.5200   -7.7111   16.1302 H   0  0  0  0  0
  -12.7278   -7.1733   13.9504 H   0  0  0  0  0
  -14.2292   -4.0316   15.9191 H   0  0  0  0  0
  -12.2192   -2.8694   16.0351 H   0  0  0  0  0
  -17.4303   -6.0732   14.6033 H   0  0  0  0  0
  -14.9835   -6.5054   12.8700 H   0  0  0  0  0
  -15.6096   -4.9697   13.4003 H   0  0  0  0  0
  -17.0729   -9.8140   15.8145 H   0  0  0  0  0
  -15.5373  -10.0460   14.9432 H   0  0  0  0  0
  -15.5243   -9.5947   16.6657 H   0  0  0  0  0
  -21.9377   -1.3350   13.7601 H   0  0  0  0  0
  -20.2176   -2.4659   15.0450 H   0  0  0  0  0
   -7.9792   -6.1535   13.5530 H   0  0  0  0  0
   -8.8928   -5.0764   12.4098 H   0  0  0  0  0
   -8.2578   -3.6314   13.7701 H   0  0  0  0  0
   -8.3108   -4.8988   15.2368 H   0  0  0  0  0
  -17.9567   -6.3876    9.9453 H   0  0  0  0  0
  -19.1666   -7.5195   10.5980 H   0  0  0  0  0
  -19.6215   -6.3731    9.3135 H   0  0  0  0  0
  -17.4605   -7.2421   11.8813 H   0  0  0  0  0
  -18.5111   -4.7422   14.3946 H   0  0  0  0  0
  1  2  1  0  0  0
  7  1  1  0  0  0
  1 12  1  0  0  0
  2  5  1  0  0  0
  3  6  4  0  0  0
  3  8  4  0  0  0
 28  3  1  0  0  0
  5  4  1  0  0  0
 11  4  1  0  0  0
  5 13  1  0  0  0
  6  7  4  0  0  0
  7  9  4  0  0  0
  8 10  4  0  0  0
  8 29  1  0  0  0
 10  9  4  0  0  0
 12 11  1  0  0  0
 11 23  1  0  0  0
 23 14  1  0  0  0
 14 24  4  0  0  0
 14 25  1  0  0  0
 15 16  1  0  0  0
 24 15  1  0  0  0
 15 27  2  0  0  0
 17 16  4  0  0  0
 16 26  4  0  0  0
 17 19  4  0  0  0
 25 17  1  0  0  0
 19 18  4  0  0  0
 18 26  4  0  0  0
 20 21  1  0  0  0
 20 28  1  0  0  0
 21 29  1  0  0  0
 24 22  1  0  0  0
  1 30  1  0  0  0
  2 31  1  0  0  0
  2 32  1  0  0  0
  4 33  1  0  0  0
  4 34  1  0  0  0
  5 35  1  0  0  0
  6 36  1  0  0  0
  9 37  1  0  0  0
 10 38  1  0  0  0
 11 39  1  0  0  0
 12 40  1  0  0  0
 12 41  1  0  0  0
 13 42  1  0  0  0
 13 43  1  0  0  0
 13 44  1  0  0  0
 18 45  1  0  0  0
 19 46  1  0  0  0
 20 47  1  0  0  0
 20 48  1  0  0  0
 21 49  1  0  0  0
 21 50  1  0  0  0
 22 51  1  0  0  0
 22 52  1  0  0  0
 22 53  1  0  0  0
 23 54  1  0  0  0
 25 55  1  0  0  0
M  END
$$$$
