### 
### Created by X-TOOL on Mon Aug  2 16:14:51 2021
### 

@<TRIPOS>MOLECULE
6mja_ligand
  175   176     1     0     0
SMALL
GAST_HUCK


@<TRIPOS>ATOM
      1 O1        -15.6450  -28.4420   19.4330 O.3       1 JTJ        -0.3463
      2 C3        -17.2560  -26.9580   21.4320 C.3       1 JTJ         0.1135
      3 O4        -19.7220  -27.3130   21.1790 O.3       1 JTJ        -0.3599
      4 C5        -18.3460  -27.4100   19.2070 C.3       1 JTJ         0.1145
      5 C6        -18.0010  -28.8920   19.3870 C.3       1 JTJ         0.1341
      6 CBT        -4.5810  -33.1320    8.2280 C.3       1 JTJ        -0.0653
      7 CBS        -5.4080  -31.8960    7.8600 C.3       1 JTJ        -0.0559
      8 CBR        -4.8050  -30.6500    8.5080 C.3       1 JTJ        -0.0533
      9 CBQ        -5.6780  -29.4210    8.2100 C.3       1 JTJ        -0.0531
     10 CBP        -6.4330  -29.0120    9.4810 C.3       1 JTJ        -0.0531
     11 CBO        -6.8230  -27.5300    9.4240 C.3       1 JTJ        -0.0531
     12 CBN        -6.7500  -26.9510   10.8420 C.3       1 JTJ        -0.0531
     13 CBM        -7.8040  -25.8520   11.0290 C.3       1 JTJ        -0.0531
     14 CBL        -7.7660  -25.3670   12.4860 C.3       1 JTJ        -0.0531
     15 CBK        -9.0080  -25.8590   13.2420 C.3       1 JTJ        -0.0531
     16 CBJ        -8.8520  -25.5590   14.7400 C.3       1 JTJ        -0.0531
     17 CBI       -10.1250  -25.9560   15.5020 C.3       1 JTJ        -0.0530
     18 CBH       -10.0100  -27.4050   16.0130 C.3       1 JTJ        -0.0506
     19 CBG       -10.9630  -27.6610   17.1990 C.3       1 JTJ        -0.0243
     20 CAQ       -12.4310  -27.7750   16.7320 C.3       1 JTJ         0.0833
     21 OAR       -12.5120  -28.4840   15.4830 O.3       1 JTJ        -0.3892
     22 CAP       -13.3110  -28.5100   17.7590 C.3       1 JTJ         0.1059
     23 OAS       -12.8310  -29.8420   17.9420 O.3       1 JTJ        -0.3869
     24 CAN       -13.3520  -27.8270   19.1320 C.3       1 JTJ         0.0936
     25 CAM       -14.3510  -28.5790   20.0240 C.3       1 JTJ         0.0762
     26 C1        -16.7040  -29.0170   20.1870 C.3       1 JTJ         0.1880
     27 O5        -17.8530  -29.5180   18.1120 O.3       1 JTJ        -0.3841
     28 O3        -19.5490  -27.3090   18.4540 O.3       1 JTJ        -0.3864
     29 O2        -16.8550  -28.3560   21.4700 O.3       1 JTJ        -0.3405
     30 C2        -17.4320  -26.4780   22.8840 C.3       1 JTJ         0.0730
     31 O6        -17.3720  -25.0470   22.9390 O.3       1 JTJ        -0.3924
     32 C4        -18.5370  -26.7500   20.5710 C.3       1 JTJ         0.1177
     33 CAT       -20.4810  -26.3710   21.9600 C.3       1 JTJ         0.0791
     34 CAU       -21.3700  -25.5850   21.2220 C.ar      1 JTJ        -0.0242
     35 CAV       -21.2060  -24.1950   21.2250 C.ar      1 JTJ        -0.0646
     36 CAW       -22.0900  -23.3800   20.5170 C.ar      1 JTJ        -0.0670
     37 CAX       -23.1470  -23.9570   19.8080 C.ar      1 JTJ        -0.0528
     38 CBA       -24.0270  -23.1440   19.0960 C.3       1 JTJ        -0.0343
     39 CAY       -23.3190  -25.3440   19.8100 C.ar      1 JTJ        -0.0670
     40 CAZ       -22.4330  -26.1610   20.5200 C.ar      1 JTJ        -0.0646
     41 NAO       -13.7710  -26.4210   19.0260 N.am      1 JTJ        -0.2791
     42 CBE       -13.4560  -25.5330   19.9780 C.2       1 JTJ         0.1764
     43 OBF       -12.7990  -25.8130   20.9820 O.2       1 JTJ        -0.3971
     44 CBU       -13.9840  -24.1110   19.7300 C.3       1 JTJ         0.0372
     45 CBV       -12.9070  -23.0620   20.0240 C.3       1 JTJ        -0.0361
     46 CBW       -11.9280  -22.9900   18.8530 C.3       1 JTJ        -0.0510
     47 CBX       -10.7530  -22.0910   19.2390 C.3       1 JTJ        -0.0529
     48 CBY        -9.8580  -21.8890   18.0140 C.3       1 JTJ        -0.0531
     49 CBZ        -8.8690  -20.7530   18.2910 C.3       1 JTJ        -0.0531
     50 CCA        -7.4490  -21.3000   18.1700 C.3       1 JTJ        -0.0531
     51 CCB        -6.4490  -20.1430   18.1030 C.3       1 JTJ        -0.0531
     52 CCC        -5.7170  -20.0090   19.4450 C.3       1 JTJ        -0.0531
     53 CCD        -4.4290  -20.8340   19.4340 C.3       1 JTJ        -0.0531
     54 CCE        -3.4210  -20.2200   20.4030 C.3       1 JTJ        -0.0531
     55 CCF        -3.6730  -20.7420   21.8180 C.3       1 JTJ        -0.0531
     56 CCG        -3.0340  -19.7770   22.8160 C.3       1 JTJ        -0.0531
     57 CCH        -3.7420  -19.8890   24.1660 C.3       1 JTJ        -0.0531
     58 CCI        -3.3820  -18.6770   25.0240 C.3       1 JTJ        -0.0531
     59 CCJ        -4.5430  -17.6810   25.0090 C.3       1 JTJ        -0.0531
     60 CCK        -4.0910  -16.3460   25.6110 C.3       1 JTJ        -0.0531
     61 CCL        -5.3060  -15.4550   25.8870 C.3       1 JTJ        -0.0531
     62 CCM        -5.7640  -14.7850   24.5900 C.3       1 JTJ        -0.0531
     63 CCN        -7.1440  -14.1470   24.7850 C.3       1 JTJ        -0.0531
     64 CCO        -8.0880  -14.5410   23.6410 C.3       1 JTJ        -0.0531
     65 CCP        -7.7140  -13.8270   22.3360 C.3       1 JTJ        -0.0531
     66 CCQ        -8.3960  -14.5350   21.1630 C.3       1 JTJ        -0.0533
     67 CCR        -7.3460  -15.0200   20.1630 C.3       1 JTJ        -0.0559
     68 CCS        -7.9910  -16.0080   19.1860 C.3       1 JTJ        -0.0653
     69 H1        -16.4464  -26.3741   20.9700 H         1 JTJ         0.0647
     70 H2        -17.5303  -26.9051   18.6688 H         1 JTJ         0.0648
     71 H3        -18.8140  -29.3878   19.9376 H         1 JTJ         0.0671
     72 H4         -5.0230  -34.0224    7.7571 H         1 JTJ         0.0230
     73 H5         -4.5774  -33.2588    9.3207 H         1 JTJ         0.0230
     74 H6         -3.5488  -33.0024    7.8705 H         1 JTJ         0.0230
     75 H7         -6.4399  -32.0288    8.2172 H         1 JTJ         0.0263
     76 H8         -5.4113  -31.7724    6.7670 H         1 JTJ         0.0263
     77 H9         -3.7947  -30.4841    8.1057 H         1 JTJ         0.0265
     78 H10        -4.7465  -30.7987    9.5963 H         1 JTJ         0.0265
     79 H11        -6.4000  -29.6672    7.4175 H         1 JTJ         0.0265
     80 H12        -5.0394  -28.5889    7.8787 H         1 JTJ         0.0265
     81 H13        -5.7878  -29.1826   10.3554 H         1 JTJ         0.0265
     82 H14        -7.3437  -29.6221    9.5726 H         1 JTJ         0.0265
     83 H15        -7.8473  -27.4308    9.0354 H         1 JTJ         0.0265
     84 H16        -6.1272  -26.9885    8.7662 H         1 JTJ         0.0265
     85 H17        -5.7496  -26.5249   11.0079 H         1 JTJ         0.0265
     86 H18        -6.9318  -27.7545   11.5709 H         1 JTJ         0.0265
     87 H19        -8.8017  -26.2547   10.8001 H         1 JTJ         0.0265
     88 H20        -7.5843  -25.0113   10.3545 H         1 JTJ         0.0265
     89 H21        -7.7429  -24.2674   12.5023 H         1 JTJ         0.0265
     90 H22        -6.8631  -25.7600   12.9762 H         1 JTJ         0.0265
     91 H23        -9.1199  -26.9434   13.0956 H         1 JTJ         0.0265
     92 H24        -9.8996  -25.3430   12.8563 H         1 JTJ         0.0265
     93 H25        -8.6687  -24.4831   14.8768 H         1 JTJ         0.0265
     94 H26        -7.9995  -26.1297   15.1369 H         1 JTJ         0.0265
     95 H27       -10.9912  -25.8760   14.8287 H         1 JTJ         0.0265
     96 H28       -10.2621  -25.2788   16.3579 H         1 JTJ         0.0265
     97 H29        -8.9756  -27.5885   16.3391 H         1 JTJ         0.0266
     98 H30       -10.2642  -28.0944   15.1944 H         1 JTJ         0.0266
     99 H31       -10.8785  -26.8274   17.9117 H         1 JTJ         0.0291
    100 H32       -10.6721  -28.5986   17.6952 H         1 JTJ         0.0291
    101 H33       -12.8270  -26.7583   16.5925 H         1 JTJ         0.0620
    102 H34       -12.1547  -29.3575   15.5922 H         1 JTJ         0.2099
    103 H35       -14.3360  -28.5487   17.3616 H         1 JTJ         0.0643
    104 H36       -12.8614  -30.3050   17.1130 H         1 JTJ         0.2100
    105 H37       -12.3500  -27.8687   19.5839 H         1 JTJ         0.0605
    106 H38       -14.0756  -29.6424   20.0820 H         1 JTJ         0.0585
    107 H39       -14.3522  -28.1449   21.0347 H         1 JTJ         0.0585
    108 H40       -16.4842  -30.0809   20.3598 H         1 JTJ         0.0937
    109 H41       -17.1488  -29.0966   17.6334 H         1 JTJ         0.2101
    110 H42       -19.4251  -27.7171   17.6051 H         1 JTJ         0.2100
    111 H43       -16.6296  -26.9002   23.5068 H         1 JTJ         0.0584
    112 H44       -18.4074  -26.8163   23.2636 H         1 JTJ         0.0584
    113 H45       -17.4815  -24.7609   23.8382 H         1 JTJ         0.2095
    114 H46       -18.6913  -25.6695   20.4345 H         1 JTJ         0.0652
    115 H47       -19.7741  -25.7010   22.4712 H         1 JTJ         0.0711
    116 H48       -21.0597  -26.9330   22.7078 H         1 JTJ         0.0711
    117 H49       -20.3883  -23.7495   21.7800 H         1 JTJ         0.0540
    118 H50       -21.9574  -22.3041   20.5169 H         1 JTJ         0.0540
    119 H51       -24.7879  -23.7688   18.6053 H         1 JTJ         0.0378
    120 H52       -23.4696  -22.5791   18.3343 H         1 JTJ         0.0378
    121 H53       -24.5182  -22.4425   19.7863 H         1 JTJ         0.0378
    122 H54       -24.1410  -25.7877   19.2600 H         1 JTJ         0.0540
    123 H55       -22.5700  -27.2363   20.5259 H         1 JTJ         0.0540
    124 H56       -14.2993  -26.1235   18.2308 H         1 JTJ         0.1856
    125 H57       -14.8494  -23.9301   20.3845 H         1 JTJ         0.0502
    126 H58       -14.2945  -24.0217   18.6785 H         1 JTJ         0.0502
    127 H59       -12.3637  -23.3416   20.9386 H         1 JTJ         0.0290
    128 H60       -13.3816  -22.0798   20.1652 H         1 JTJ         0.0290
    129 H61       -12.4374  -22.5726   17.9719 H         1 JTJ         0.0267
    130 H62       -11.5584  -23.9993   18.6190 H         1 JTJ         0.0267
    131 H63       -10.1740  -22.5661   20.0446 H         1 JTJ         0.0265
    132 H64       -11.1311  -21.1174   19.5842 H         1 JTJ         0.0265
    133 H65       -10.4792  -21.6311   17.1436 H         1 JTJ         0.0265
    134 H66        -9.3037  -22.8163   17.8071 H         1 JTJ         0.0265
    135 H67        -9.0296  -20.3617   19.3064 H         1 JTJ         0.0265
    136 H68        -9.0182  -19.9456   17.5590 H         1 JTJ         0.0265
    137 H69        -7.3680  -21.9054   17.2552 H         1 JTJ         0.0265
    138 H70        -7.2236  -21.9266   19.0456 H         1 JTJ         0.0265
    139 H71        -6.9864  -19.2082   17.8855 H         1 JTJ         0.0265
    140 H72        -5.7168  -20.3391   17.3059 H         1 JTJ         0.0265
    141 H73        -6.3714  -20.3693   20.2525 H         1 JTJ         0.0265
    142 H74        -5.4687  -18.9516   19.6185 H         1 JTJ         0.0265
    143 H75        -4.0054  -20.8385   18.4189 H         1 JTJ         0.0265
    144 H76        -4.6522  -21.8659   19.7427 H         1 JTJ         0.0265
    145 H77        -3.5271  -19.1252   20.3941 H         1 JTJ         0.0265
    146 H78        -2.4022  -20.4922   20.0902 H         1 JTJ         0.0265
    147 H79        -3.2252  -21.7405   21.9297 H         1 JTJ         0.0265
    148 H80        -4.7556  -20.8029   22.0030 H         1 JTJ         0.0265
    149 H81        -3.1256  -18.7476   22.4393 H         1 JTJ         0.0265
    150 H82        -1.9704  -20.0292   22.9389 H         1 JTJ         0.0265
    151 H83        -3.4196  -20.8091   24.6753 H         1 JTJ         0.0265
    152 H84        -4.8304  -19.9186   24.0094 H         1 JTJ         0.0265
    153 H85        -2.4800  -18.1953   24.6187 H         1 JTJ         0.0265
    154 H86        -3.1911  -19.0025   26.0572 H         1 JTJ         0.0265
    155 H87        -5.3776  -18.0844   25.6011 H         1 JTJ         0.0265
    156 H88        -4.8729  -17.5206   23.9720 H         1 JTJ         0.0265
    157 H89        -3.4195  -15.8368   24.9040 H         1 JTJ         0.0265
    158 H90        -3.5563  -16.5344   26.5537 H         1 JTJ         0.0265
    159 H91        -5.0327  -14.6820   26.6203 H         1 JTJ         0.0265
    160 H92        -6.1251  -16.0691   26.2895 H         1 JTJ         0.0265
    161 H93        -5.8216  -15.5394   23.7915 H         1 JTJ         0.0265
    162 H94        -5.0401  -14.0065   24.3074 H         1 JTJ         0.0265
    163 H95        -7.0367  -13.0524   24.8043 H         1 JTJ         0.0265
    164 H96        -7.5695  -14.4907   25.7393 H         1 JTJ         0.0265
    165 H97        -9.1174  -14.2678   23.9161 H         1 JTJ         0.0265
    166 H98        -8.0265  -15.6281   23.4845 H         1 JTJ         0.0265
    167 H99        -6.6229  -13.8567   22.1998 H         1 JTJ         0.0265
    168 H100       -8.0497  -12.7804   22.3797 H         1 JTJ         0.0265
    169 H101       -9.0797  -13.8339   20.6620 H         1 JTJ         0.0265
    170 H102       -8.9660  -15.3971   21.5395 H         1 JTJ         0.0265
    171 H103       -6.5280  -15.5193   20.7030 H         1 JTJ         0.0263
    172 H104       -6.9461  -14.1605   19.6050 H         1 JTJ         0.0263
    173 H105       -7.2362  -16.3574   18.4662 H         1 JTJ         0.0230
    174 H106       -8.8090  -15.5086   18.6461 H         1 JTJ         0.0230
    175 H107       -8.3909  -16.8674   19.7441 H         1 JTJ         0.0230
@<TRIPOS>BOND
     1   25    1 1  
     2    1   26 1  
     3    2   29 1  
     4    2   30 1  
     5   32    2 1  
     6   32    3 1  
     7    3   33 1  
     8    5    4 1  
     9    4   28 1  
    10    4   32 1  
    11   26    5 1  
    12    5   27 1  
    13    7    6 1  
    14    8    7 1  
    15    9    8 1  
    16   10    9 1  
    17   11   10 1  
    18   12   11 1  
    19   13   12 1  
    20   14   13 1  
    21   15   14 1  
    22   16   15 1  
    23   17   16 1  
    24   18   17 1  
    25   19   18 1  
    26   20   19 1  
    27   20   21 1  
    28   22   20 1  
    29   22   23 1  
    30   24   22 1  
    31   24   25 1  
    32   24   41 1  
    33   26   29 1  
    34   30   31 1  
    35   33   34 1  
    36   34   35 ar 
    37   34   40 ar 
    38   35   36 ar 
    39   36   37 ar 
    40   37   38 1  
    41   37   39 ar 
    42   39   40 ar 
    43   41   42 am 
    44   42   43 2  
    45   42   44 1  
    46   44   45 1  
    47   45   46 1  
    48   46   47 1  
    49   47   48 1  
    50   48   49 1  
    51   49   50 1  
    52   50   51 1  
    53   51   52 1  
    54   52   53 1  
    55   53   54 1  
    56   54   55 1  
    57   55   56 1  
    58   56   57 1  
    59   57   58 1  
    60   58   59 1  
    61   59   60 1  
    62   60   61 1  
    63   61   62 1  
    64   62   63 1  
    65   63   64 1  
    66   64   65 1  
    67   65   66 1  
    68   66   67 1  
    69   67   68 1  
    70    2   69 1  
    71    4   70 1  
    72    5   71 1  
    73    6   72 1  
    74    6   73 1  
    75    6   74 1  
    76    7   75 1  
    77    7   76 1  
    78    8   77 1  
    79    8   78 1  
    80    9   79 1  
    81    9   80 1  
    82   10   81 1  
    83   10   82 1  
    84   11   83 1  
    85   11   84 1  
    86   12   85 1  
    87   12   86 1  
    88   13   87 1  
    89   13   88 1  
    90   14   89 1  
    91   14   90 1  
    92   15   91 1  
    93   15   92 1  
    94   16   93 1  
    95   16   94 1  
    96   17   95 1  
    97   17   96 1  
    98   18   97 1  
    99   18   98 1  
   100   19   99 1  
   101   19  100 1  
   102   20  101 1  
   103   21  102 1  
   104   22  103 1  
   105   23  104 1  
   106   24  105 1  
   107   25  106 1  
   108   25  107 1  
   109   26  108 1  
   110   27  109 1  
   111   28  110 1  
   112   30  111 1  
   113   30  112 1  
   114   31  113 1  
   115   32  114 1  
   116   33  115 1  
   117   33  116 1  
   118   35  117 1  
   119   36  118 1  
   120   38  119 1  
   121   38  120 1  
   122   38  121 1  
   123   39  122 1  
   124   40  123 1  
   125   41  124 1  
   126   44  125 1  
   127   44  126 1  
   128   45  127 1  
   129   45  128 1  
   130   46  129 1  
   131   46  130 1  
   132   47  131 1  
   133   47  132 1  
   134   48  133 1  
   135   48  134 1  
   136   49  135 1  
   137   49  136 1  
   138   50  137 1  
   139   50  138 1  
   140   51  139 1  
   141   51  140 1  
   142   52  141 1  
   143   52  142 1  
   144   53  143 1  
   145   53  144 1  
   146   54  145 1  
   147   54  146 1  
   148   55  147 1  
   149   55  148 1  
   150   56  149 1  
   151   56  150 1  
   152   57  151 1  
   153   57  152 1  
   154   58  153 1  
   155   58  154 1  
   156   59  155 1  
   157   59  156 1  
   158   60  157 1  
   159   60  158 1  
   160   61  159 1  
   161   61  160 1  
   162   62  161 1  
   163   62  162 1  
   164   63  163 1  
   165   63  164 1  
   166   64  165 1  
   167   64  166 1  
   168   65  167 1  
   169   65  168 1  
   170   66  169 1  
   171   66  170 1  
   172   67  171 1  
   173   67  172 1  
   174   68  173 1  
   175   68  174 1  
   176   68  175 1  
@<TRIPOS>SUBSTRUCTURE
     1 JTJ         1

