6mja_ligand
  -I-interpret- 

175176  0  0  0  0  0  0  0  0999 V2000
  -15.6450  -28.4420   19.4330 O   0  0  0  0  0
  -17.2560  -26.9580   21.4320 C   0  0  0  0  0
  -19.7220  -27.3130   21.1790 O   0  0  0  0  0
  -18.3460  -27.4100   19.2070 C   0  0  0  0  0
  -18.0010  -28.8920   19.3870 C   0  0  0  0  0
   -4.5810  -33.1320    8.2280 C   0  0  0  0  0
   -5.4080  -31.8960    7.8600 C   0  0  0  0  0
   -4.8050  -30.6500    8.5080 C   0  0  0  0  0
   -5.6780  -29.4210    8.2100 C   0  0  0  0  0
   -6.4330  -29.0120    9.4810 C   0  0  0  0  0
   -6.8230  -27.5300    9.4240 C   0  0  0  0  0
   -6.7500  -26.9510   10.8420 C   0  0  0  0  0
   -7.8040  -25.8520   11.0290 C   0  0  0  0  0
   -7.7660  -25.3670   12.4860 C   0  0  0  0  0
   -9.0080  -25.8590   13.2420 C   0  0  0  0  0
   -8.8520  -25.5590   14.7400 C   0  0  0  0  0
  -10.1250  -25.9560   15.5020 C   0  0  0  0  0
  -10.0100  -27.4050   16.0130 C   0  0  0  0  0
  -10.9630  -27.6610   17.1990 C   0  0  0  0  0
  -12.4310  -27.7750   16.7320 C   0  0  0  0  0
  -12.5120  -28.4840   15.4830 O   0  0  0  0  0
  -13.3110  -28.5100   17.7590 C   0  0  0  0  0
  -12.8310  -29.8420   17.9420 O   0  0  0  0  0
  -13.3520  -27.8270   19.1320 C   0  0  0  0  0
  -14.3510  -28.5790   20.0240 C   0  0  0  0  0
  -16.7040  -29.0170   20.1870 C   0  0  0  0  0
  -17.8530  -29.5180   18.1120 O   0  0  0  0  0
  -19.5490  -27.3090   18.4540 O   0  0  0  0  0
  -16.8550  -28.3560   21.4700 O   0  0  0  0  0
  -17.4320  -26.4780   22.8840 C   0  0  0  0  0
  -17.3720  -25.0470   22.9390 O   0  0  0  0  0
  -18.5370  -26.7500   20.5710 C   0  0  0  0  0
  -20.4810  -26.3710   21.9600 C   0  0  0  0  0
  -21.3700  -25.5850   21.2220 C   0  0  0  0  0
  -21.2060  -24.1950   21.2250 C   0  0  0  0  0
  -22.0900  -23.3800   20.5170 C   0  0  0  0  0
  -23.1470  -23.9570   19.8080 C   0  0  0  0  0
  -24.0270  -23.1440   19.0960 C   0  0  0  0  0
  -23.3190  -25.3440   19.8100 C   0  0  0  0  0
  -22.4330  -26.1610   20.5200 C   0  0  0  0  0
  -13.7710  -26.4210   19.0260 N   0  0  0  0  0
  -13.4560  -25.5330   19.9780 C   0  0  0  0  0
  -12.7990  -25.8130   20.9820 O   0  0  0  0  0
  -13.9840  -24.1110   19.7300 C   0  0  0  0  0
  -12.9070  -23.0620   20.0240 C   0  0  0  0  0
  -11.9280  -22.9900   18.8530 C   0  0  0  0  0
  -10.7530  -22.0910   19.2390 C   0  0  0  0  0
   -9.8580  -21.8890   18.0140 C   0  0  0  0  0
   -8.8690  -20.7530   18.2910 C   0  0  0  0  0
   -7.4490  -21.3000   18.1700 C   0  0  0  0  0
   -6.4490  -20.1430   18.1030 C   0  0  0  0  0
   -5.7170  -20.0090   19.4450 C   0  0  0  0  0
   -4.4290  -20.8340   19.4340 C   0  0  0  0  0
   -3.4210  -20.2200   20.4030 C   0  0  0  0  0
   -3.6730  -20.7420   21.8180 C   0  0  0  0  0
   -3.0340  -19.7770   22.8160 C   0  0  0  0  0
   -3.7420  -19.8890   24.1660 C   0  0  0  0  0
   -3.3820  -18.6770   25.0240 C   0  0  0  0  0
   -4.5430  -17.6810   25.0090 C   0  0  0  0  0
   -4.0910  -16.3460   25.6110 C   0  0  0  0  0
   -5.3060  -15.4550   25.8870 C   0  0  0  0  0
   -5.7640  -14.7850   24.5900 C   0  0  0  0  0
   -7.1440  -14.1470   24.7850 C   0  0  0  0  0
   -8.0880  -14.5410   23.6410 C   0  0  0  0  0
   -7.7140  -13.8270   22.3360 C   0  0  0  0  0
   -8.3960  -14.5350   21.1630 C   0  0  0  0  0
   -7.3460  -15.0200   20.1630 C   0  0  0  0  0
   -7.9910  -16.0080   19.1860 C   0  0  0  0  0
  -16.4862  -26.3578   20.9471 H   0  0  0  0  0
  -17.5346  -26.9048   18.6830 H   0  0  0  0  0
  -18.8073  -29.3880   19.9274 H   0  0  0  0  0
   -3.5585  -33.0023    7.8732 H   0  0  0  0  0
   -4.5782  -33.2565    9.3109 H   0  0  0  0  0
   -5.0199  -34.0136    7.7608 H   0  0  0  0  0
   -6.4286  -32.0281    8.2191 H   0  0  0  0  0
   -5.4058  -31.7731    6.7770 H   0  0  0  0  0
   -3.8066  -30.4850    8.1028 H   0  0  0  0  0
   -4.7541  -30.7982    9.5867 H   0  0  0  0  0
   -6.3932  -29.6645    7.4243 H   0  0  0  0  0
   -5.0455  -28.5964    7.8811 H   0  0  0  0  0
   -5.7864  -29.1741   10.3434 H   0  0  0  0  0
   -7.3389  -29.6127    9.5623 H   0  0  0  0  0
   -7.8350  -27.4270    9.0324 H   0  0  0  0  0
   -6.1401  -26.9912    8.7672 H   0  0  0  0  0
   -5.7601  -26.5225   10.9989 H   0  0  0  0  0
   -6.9391  -27.7488   11.5603 H   0  0  0  0  0
   -8.7931  -26.2477   10.7986 H   0  0  0  0  0
   -7.5907  -25.0196   10.3584 H   0  0  0  0  0
   -7.7495  -24.2772   12.4986 H   0  0  0  0  0
   -6.8736  -25.7633   12.9704 H   0  0  0  0  0
   -9.1177  -26.9338   13.0975 H   0  0  0  0  0
   -9.8910  -25.3465   12.8601 H   0  0  0  0  0
   -8.6784  -24.4910   14.8716 H   0  0  0  0  0
   -8.0114  -26.1323   15.1308 H   0  0  0  0  0
  -10.9803  -25.8816   14.8305 H   0  0  0  0  0
  -10.2545  -25.2871   16.3528 H   0  0  0  0  0
   -8.9867  -27.5735   16.3486 H   0  0  0  0  0
  -10.2786  -28.0807   15.2010 H   0  0  0  0  0
  -10.8852  -26.8227   17.8913 H   0  0  0  0  0
  -10.6782  -28.5997   17.6741 H   0  0  0  0  0
  -12.7977  -26.7550   16.6168 H   0  0  0  0  0
  -13.4303  -28.5445   15.2097 H   0  0  0  0  0
  -14.3216  -28.4982   17.3507 H   0  0  0  0  0
  -13.3836  -30.2948   18.5832 H   0  0  0  0  0
  -12.3492  -27.8502   19.5584 H   0  0  0  0  0
  -14.0766  -29.6312   20.0995 H   0  0  0  0  0
  -14.3474  -28.1650   21.0323 H   0  0  0  0  0
  -16.4732  -30.0654   20.3757 H   0  0  0  0  0
  -18.6721  -29.4338   17.6184 H   0  0  0  0  0
  -19.4250  -27.7248   17.5976 H   0  0  0  0  0
  -16.6332  -26.8939   23.4981 H   0  0  0  0  0
  -18.4010  -26.8105   23.2562 H   0  0  0  0  0
  -17.4827  -24.7579   23.8477 H   0  0  0  0  0
  -18.6814  -25.6734   20.4806 H   0  0  0  0  0
  -19.7649  -25.6918   22.4226 H   0  0  0  0  0
  -21.0782  -26.9502   22.6642 H   0  0  0  0  0
  -20.3838  -23.7470   21.7831 H   0  0  0  0  0
  -21.9567  -22.2982   20.5169 H   0  0  0  0  0
  -24.5130  -22.4494   19.7811 H   0  0  0  0  0
  -23.4735  -22.5848   18.3416 H   0  0  0  0  0
  -24.7804  -23.7642   18.6103 H   0  0  0  0  0
  -24.1456  -25.7901   19.2570 H   0  0  0  0  0
  -22.5708  -27.2422   20.5259 H   0  0  0  0  0
  -14.3098  -26.1175   18.2149 H   0  0  0  0  0
  -14.8321  -23.9342   20.3915 H   0  0  0  0  0
  -14.2766  -24.0258   18.6835 H   0  0  0  0  0
  -12.3683  -23.3402   20.9298 H   0  0  0  0  0
  -13.3778  -22.0888   20.1627 H   0  0  0  0  0
  -12.4320  -22.5797   17.9779 H   0  0  0  0  0
  -11.5633  -23.9898   18.6176 H   0  0  0  0  0
  -10.1802  -22.5580   20.0402 H   0  0  0  0  0
  -11.1256  -21.1270   19.5854 H   0  0  0  0  0
  -10.4731  -21.6347   17.1508 H   0  0  0  0  0
   -9.3094  -22.8080   17.8076 H   0  0  0  0  0
   -9.0296  -20.3586   19.2944 H   0  0  0  0  0
   -9.0184  -19.9482   17.5712 H   0  0  0  0  0
   -7.3698  -21.8967   17.2613 H   0  0  0  0  0
   -7.2263  -21.9177   19.0400 H   0  0  0  0  0
   -6.9834  -19.2171   17.8903 H   0  0  0  0  0
   -5.7225  -20.3402   17.3147 H   0  0  0  0  0
   -6.3657  -20.3738   20.2414 H   0  0  0  0  0
   -5.4662  -18.9611   19.6097 H   0  0  0  0  0
   -4.0092  -20.8378   18.4281 H   0  0  0  0  0
   -4.6504  -21.8563   19.7404 H   0  0  0  0  0
   -3.5304  -19.1355   20.3955 H   0  0  0  0  0
   -2.4125  -20.4941   20.0935 H   0  0  0  0  0
   -3.2363  -21.7344   21.9303 H   0  0  0  0  0
   -4.7451  -20.8100   22.0026 H   0  0  0  0  0
   -3.1268  -18.7571   22.4427 H   0  0  0  0  0
   -1.9806  -20.0287   22.9384 H   0  0  0  0  0
   -3.4251  -20.8017   24.6707 H   0  0  0  0  0
   -4.8206  -19.9208   24.0119 H   0  0  0  0  0
   -2.4878  -18.1998   24.6230 H   0  0  0  0  0
   -3.1921  -18.9993   26.0478 H   0  0  0  0  0
   -5.3680  -18.0808   25.5986 H   0  0  0  0  0
   -4.8667  -17.5209   23.9806 H   0  0  0  0  0
   -3.4299  -15.8414   24.9064 H   0  0  0  0  0
   -3.5660  -16.5352   26.5473 H   0  0  0  0  0
   -5.0327  -14.6878   26.6115 H   0  0  0  0  0
   -6.1176  -16.0655   26.2829 H   0  0  0  0  0
   -5.8252  -15.5357   23.8021 H   0  0  0  0  0
   -5.0477  -14.0107   24.3153 H   0  0  0  0  0
   -7.0336  -13.0626   24.7941 H   0  0  0  0  0
   -7.5653  -14.4978   25.7271 H   0  0  0  0  0
   -9.1029  -14.2528   23.9148 H   0  0  0  0  0
   -8.0093  -15.6165   23.4821 H   0  0  0  0  0
   -6.6327  -13.8534   22.2010 H   0  0  0  0  0
   -8.0438  -12.7890   22.3790 H   0  0  0  0  0
   -9.0696  -13.8372   20.6656 H   0  0  0  0  0
   -8.9567  -15.3913   21.5379 H   0  0  0  0  0
   -6.5352  -15.5144   20.6980 H   0  0  0  0  0
   -6.9494  -14.1684   19.6103 H   0  0  0  0  0
   -8.3868  -16.8590   19.7402 H   0  0  0  0  0
   -8.8013  -15.5120   18.6517 H   0  0  0  0  0
   -7.2421  -16.3535   18.4733 H   0  0  0  0  0
 25  1  1  0  0  0
  1 26  1  0  0  0
  2 29  1  0  0  0
  2 30  1  0  0  0
 32  2  1  0  0  0
 32  3  1  0  0  0
  3 33  1  0  0  0
  5  4  1  0  0  0
  4 28  1  0  0  0
  4 32  1  0  0  0
 26  5  1  0  0  0
  5 27  1  0  0  0
  7  6  1  0  0  0
  8  7  1  0  0  0
  9  8  1  0  0  0
 10  9  1  0  0  0
 11 10  1  0  0  0
 12 11  1  0  0  0
 13 12  1  0  0  0
 14 13  1  0  0  0
 15 14  1  0  0  0
 16 15  1  0  0  0
 17 16  1  0  0  0
 18 17  1  0  0  0
 19 18  1  0  0  0
 20 19  1  0  0  0
 20 21  1  0  0  0
 22 20  1  0  0  0
 22 23  1  0  0  0
 24 22  1  0  0  0
 24 25  1  0  0  0
 24 41  1  0  0  0
 26 29  1  0  0  0
 30 31  1  0  0  0
 33 34  1  0  0  0
 34 35  4  0  0  0
 34 40  4  0  0  0
 35 36  4  0  0  0
 36 37  4  0  0  0
 37 38  1  0  0  0
 37 39  4  0  0  0
 39 40  4  0  0  0
 41 42  1  0  0  0
 42 43  2  0  0  0
 42 44  1  0  0  0
 44 45  1  0  0  0
 45 46  1  0  0  0
 46 47  1  0  0  0
 47 48  1  0  0  0
 48 49  1  0  0  0
 49 50  1  0  0  0
 50 51  1  0  0  0
 51 52  1  0  0  0
 52 53  1  0  0  0
 53 54  1  0  0  0
 54 55  1  0  0  0
 55 56  1  0  0  0
 56 57  1  0  0  0
 57 58  1  0  0  0
 58 59  1  0  0  0
 59 60  1  0  0  0
 60 61  1  0  0  0
 61 62  1  0  0  0
 62 63  1  0  0  0
 63 64  1  0  0  0
 64 65  1  0  0  0
 65 66  1  0  0  0
 66 67  1  0  0  0
 67 68  1  0  0  0
  2 69  1  0  0  0
  4 70  1  0  0  0
  5 71  1  0  0  0
  6 72  1  0  0  0
  6 73  1  0  0  0
  6 74  1  0  0  0
  7 75  1  0  0  0
  7 76  1  0  0  0
  8 77  1  0  0  0
  8 78  1  0  0  0
  9 79  1  0  0  0
  9 80  1  0  0  0
 10 81  1  0  0  0
 10 82  1  0  0  0
 11 83  1  0  0  0
 11 84  1  0  0  0
 12 85  1  0  0  0
 12 86  1  0  0  0
 13 87  1  0  0  0
 13 88  1  0  0  0
 14 89  1  0  0  0
 14 90  1  0  0  0
 15 91  1  0  0  0
 15 92  1  0  0  0
 16 93  1  0  0  0
 16 94  1  0  0  0
 17 95  1  0  0  0
 17 96  1  0  0  0
 18 97  1  0  0  0
 18 98  1  0  0  0
 19 99  1  0  0  0
 19100  1  0  0  0
 20101  1  0  0  0
 21102  1  0  0  0
 22103  1  0  0  0
 23104  1  0  0  0
 24105  1  0  0  0
 25106  1  0  0  0
 25107  1  0  0  0
 26108  1  0  0  0
 27109  1  0  0  0
 28110  1  0  0  0
 30111  1  0  0  0
 30112  1  0  0  0
 31113  1  0  0  0
 32114  1  0  0  0
 33115  1  0  0  0
 33116  1  0  0  0
 35117  1  0  0  0
 36118  1  0  0  0
 38119  1  0  0  0
 38120  1  0  0  0
 38121  1  0  0  0
 39122  1  0  0  0
 40123  1  0  0  0
 41124  1  0  0  0
 44125  1  0  0  0
 44126  1  0  0  0
 45127  1  0  0  0
 45128  1  0  0  0
 46129  1  0  0  0
 46130  1  0  0  0
 47131  1  0  0  0
 47132  1  0  0  0
 48133  1  0  0  0
 48134  1  0  0  0
 49135  1  0  0  0
 49136  1  0  0  0
 50137  1  0  0  0
 50138  1  0  0  0
 51139  1  0  0  0
 51140  1  0  0  0
 52141  1  0  0  0
 52142  1  0  0  0
 53143  1  0  0  0
 53144  1  0  0  0
 54145  1  0  0  0
 54146  1  0  0  0
 55147  1  0  0  0
 55148  1  0  0  0
 56149  1  0  0  0
 56150  1  0  0  0
 57151  1  0  0  0
 57152  1  0  0  0
 58153  1  0  0  0
 58154  1  0  0  0
 59155  1  0  0  0
 59156  1  0  0  0
 60157  1  0  0  0
 60158  1  0  0  0
 61159  1  0  0  0
 61160  1  0  0  0
 62161  1  0  0  0
 62162  1  0  0  0
 63163  1  0  0  0
 63164  1  0  0  0
 64165  1  0  0  0
 64166  1  0  0  0
 65167  1  0  0  0
 65168  1  0  0  0
 66169  1  0  0  0
 66170  1  0  0  0
 67171  1  0  0  0
 67172  1  0  0  0
 68173  1  0  0  0
 68174  1  0  0  0
 68175  1  0  0  0
M  END
$$$$
