5ia3_ligand
  -I-interpret- 

 45 48  0  0  0  0  0  0  0  0999 V2000
 -107.7030  -14.0970   80.0330 S   0  0  0  0  0
 -108.7700  -14.3130   81.3650 C   0  0  0  0  0
 -110.1410  -14.3170   81.1410 C   0  0  0  0  0
 -111.0410  -14.5010   82.1810 C   0  0  0  0  0
 -112.3550  -14.4750   81.8560 N   0  0  0  0  0
 -113.3480  -15.0050   82.5970 C   0  0  0  0  0
 -113.1930  -15.5140   83.8360 N   0  0  0  0  0
 -114.2200  -16.0350   84.5320 C   0  0  0  0  0
 -114.0130  -16.5380   85.7610 N   0  0  0  0  0
 -112.6410  -16.5060   86.3270 C   0  0  0  0  0
 -115.0160  -17.0660   86.4880 C   0  0  0  0  0
 -114.7570  -17.5080   87.6090 O   0  0  0  0  0
 -116.3160  -17.1170   85.9860 C   0  0  0  0  0
 -117.3510  -17.6750   86.7500 C   0  0  0  0  0
 -117.8280  -18.9590   86.4700 C   0  0  0  0  0
 -117.3690  -15.3970   88.1860 Cl  0  0  0  0  0
 -118.8490  -19.5260   87.2250 C   0  0  0  0  0
 -119.4130  -18.8170   88.2790 C   0  0  0  0  0
 -118.9450  -17.5400   88.5670 C   0  0  0  0  0
 -117.9230  -16.9720   87.8090 C   0  0  0  0  0
 -117.1660  -19.8740   85.1870 Cl  0  0  0  0  0
 -116.5550  -16.6000   84.7130 C   0  0  0  0  0
 -115.4930  -16.0570   83.9860 C   0  0  0  0  0
 -115.6780  -15.5320   82.7140 C   0  0  0  0  0
 -114.5710  -15.0110   82.0360 N   0  0  0  0  0
 -110.5240  -14.6600   83.4700 C   0  0  0  0  0
 -109.1540  -14.6540   83.7030 C   0  0  0  0  0
 -108.2670  -14.4810   82.6500 C   0  0  0  0  0
 -107.2740  -15.7860   79.6750 C   0  0  0  0  0
 -110.5172  -14.1727   80.1282 H   0  0  0  0  0
 -112.6137  -14.0183   80.9814 H   0  0  0  0  0
 -111.9696  -17.0720   85.6812 H   0  0  0  0  0
 -112.2999  -15.4727   86.3914 H   0  0  0  0  0
 -112.6496  -16.9498   87.3225 H   0  0  0  0  0
 -119.2075  -20.5281   86.9898 H   0  0  0  0  0
 -120.2136  -19.2574   88.8733 H   0  0  0  0  0
 -119.3813  -16.9782   89.3929 H   0  0  0  0  0
 -117.5594  -16.6194   84.2900 H   0  0  0  0  0
 -116.6658  -15.5260   82.2531 H   0  0  0  0  0
 -111.2084  -14.7912   84.3082 H   0  0  0  0  0
 -108.7749  -14.7856   84.7164 H   0  0  0  0  0
 -107.1916  -14.4769   82.8278 H   0  0  0  0  0
 -106.7987  -16.2318   80.5487 H   0  0  0  0  0
 -108.1768  -16.3440   79.4266 H   0  0  0  0  0
 -106.5846  -15.8134   78.8311 H   0  0  0  0  0
  1  2  1  0  0  0
  1 29  1  0  0  0
  2  3  4  0  0  0
  2 28  4  0  0  0
  3  4  4  0  0  0
  4  5  1  0  0  0
  4 26  4  0  0  0
  5  6  1  0  0  0
  6  7  4  0  0  0
  6 25  4  0  0  0
  7  8  4  0  0  0
  8  9  1  0  0  0
  8 23  4  0  0  0
  9 10  1  0  0  0
  9 11  1  0  0  0
 11 12  2  0  0  0
 11 13  1  0  0  0
 13 14  1  0  0  0
 13 22  2  0  0  0
 14 15  4  0  0  0
 14 20  4  0  0  0
 15 17  4  0  0  0
 15 21  1  0  0  0
 20 16  1  0  0  0
 17 18  4  0  0  0
 18 19  4  0  0  0
 19 20  4  0  0  0
 22 23  1  0  0  0
 23 24  4  0  0  0
 24 25  4  0  0  0
 26 27  4  0  0  0
 27 28  4  0  0  0
  3 30  1  0  0  0
  5 31  1  0  0  0
 10 32  1  0  0  0
 10 33  1  0  0  0
 10 34  1  0  0  0
 17 35  1  0  0  0
 18 36  1  0  0  0
 19 37  1  0  0  0
 22 38  1  0  0  0
 24 39  1  0  0  0
 26 40  1  0  0  0
 27 41  1  0  0  0
 28 42  1  0  0  0
 29 43  1  0  0  0
 29 44  1  0  0  0
 29 45  1  0  0  0
M  END
$$$$
