### 
### Created by X-TOOL on Mon Sep 10 21:13:26 2018
### 

@<TRIPOS>MOLECULE
5ia3_ligand
   45    48     1     0     0
SMALL
GAST_HUCK


@<TRIPOS>ATOM
      1 S2       -107.7030  -14.0970   80.0330 S.3       1 P17        -0.1080
      2 C3       -108.7700  -14.3130   81.3650 C.ar      1 P17         0.0058
      3 C8       -110.1410  -14.3170   81.1410 C.ar      1 P17        -0.0263
      4 C7       -111.0410  -14.5010   82.1810 C.ar      1 P17         0.0607
      5 N9       -112.3550  -14.4750   81.8560 N.pl3     1 P17        -0.2440
      6 C10      -113.3480  -15.0050   82.5970 C.ar      1 P17         0.1977
      7 N15      -113.1930  -15.5140   83.8360 N.ar      1 P17        -0.2307
      8 C14      -114.2200  -16.0350   84.5320 C.ar      1 P17         0.1655
      9 N19      -114.0130  -16.5380   85.7610 N.am      1 P17        -0.1970
     10 C20      -112.6410  -16.5060   86.3270 C.3       1 P17         0.0548
     11 C18      -115.0160  -17.0660   86.4880 C.2       1 P17         0.2280
     12 O21      -114.7570  -17.5080   87.6090 O.2       1 P17        -0.3929
     13 C17      -116.3160  -17.1170   85.9860 C.2       1 P17         0.0553
     14 C22      -117.3510  -17.6750   86.7500 C.ar      1 P17         0.0100
     15 C27      -117.8280  -18.9590   86.4700 C.ar      1 P17         0.0447
     16 CL1      -117.3690  -15.3970   88.1860 Cl        1 P17        -0.0720
     17 C26      -118.8490  -19.5260   87.2250 C.ar      1 P17        -0.0503
     18 C25      -119.4130  -18.8170   88.2790 C.ar      1 P17        -0.0636
     19 C24      -118.9450  -17.5400   88.5670 C.ar      1 P17        -0.0503
     20 C23      -117.9230  -16.9720   87.8090 C.ar      1 P17         0.0447
     21 CL2      -117.1660  -19.8740   85.1870 Cl        1 P17        -0.0720
     22 C16      -116.5550  -16.6000   84.7130 C.2       1 P17        -0.0305
     23 C13      -115.4930  -16.0570   83.9860 C.ar      1 P17         0.0515
     24 C12      -115.6780  -15.5320   82.7140 C.ar      1 P17         0.0171
     25 N11      -114.5710  -15.0110   82.0360 N.ar      1 P17        -0.2617
     26 C6       -110.5240  -14.6600   83.4700 C.ar      1 P17        -0.0445
     27 C5       -109.1540  -14.6540   83.7030 C.ar      1 P17        -0.0768
     28 C4       -108.2670  -14.4810   82.6500 C.ar      1 P17        -0.0611
     29 C1       -107.2740  -15.7860   79.6750 C.3       1 P17        -0.0048
     30 H1       -110.5152  -14.1735   80.1338 H         1 P17         0.0483
     31 H2       -112.6163  -14.0138   80.9729 H         1 P17         0.2197
     32 H3       -111.9557  -16.0439   85.6012 H         1 P17         0.0583
     33 H4       -112.3092  -17.5324   86.5425 H         1 P17         0.0583
     34 H5       -112.6414  -15.9180   87.2566 H         1 P17         0.0583
     35 H6       -119.2056  -20.5226   86.9911 H         1 P17         0.0617
     36 H7       -120.2092  -19.2550   88.8701 H         1 P17         0.0594
     37 H8       -119.3789  -16.9813   89.3884 H         1 P17         0.0617
     38 H9       -117.5585  -16.6194   84.2904 H         1 P17         0.0728
     39 H10      -116.6603  -15.5260   82.2557 H         1 P17         0.0899
     40 H11      -111.2046  -14.7904   84.3036 H         1 P17         0.0483
     41 H12      -108.7770  -14.7849   84.7109 H         1 P17         0.0572
     42 H13      -107.1975  -14.4769   82.8268 H         1 P17         0.0472
     43 H14      -106.5783  -15.8150   78.8235 H         1 P17         0.0366
     44 H15      -108.1843  -16.3503   79.4241 H         1 P17         0.0366
     45 H16      -106.7941  -16.2371   80.5560 H         1 P17         0.0366
@<TRIPOS>BOND
     1    1    2 1  
     2    1   29 1  
     3    2    3 ar 
     4    2   28 ar 
     5    3    4 ar 
     6    4    5 1  
     7    4   26 ar 
     8    5    6 1  
     9    6    7 ar 
    10    6   25 ar 
    11    7    8 ar 
    12    8    9 1  
    13    8   23 ar 
    14    9   10 1  
    15    9   11 am 
    16   11   12 2  
    17   11   13 1  
    18   13   14 1  
    19   13   22 2  
    20   14   15 ar 
    21   14   20 ar 
    22   15   17 ar 
    23   15   21 1  
    24   20   16 1  
    25   17   18 ar 
    26   18   19 ar 
    27   19   20 ar 
    28   22   23 1  
    29   23   24 ar 
    30   24   25 ar 
    31   26   27 ar 
    32   27   28 ar 
    33    3   30 1  
    34    5   31 1  
    35   10   32 1  
    36   10   33 1  
    37   10   34 1  
    38   17   35 1  
    39   18   36 1  
    40   19   37 1  
    41   22   38 1  
    42   24   39 1  
    43   26   40 1  
    44   27   41 1  
    45   28   42 1  
    46   29   43 1  
    47   29   44 1  
    48   29   45 1  
@<TRIPOS>SUBSTRUCTURE
     1 P17         1

