### 
### Created by X-TOOL on Mon Sep 10 21:13:31 2018
### 

@<TRIPOS>MOLECULE
5op4_ligand
   52    54     1     0     0
SMALL
GAST_HUCK


@<TRIPOS>ATOM
      1 C01         3.4810   -6.0960   16.3710 C.3       1 A0T        -0.0430
      2 C02         3.8220   -5.7670   17.8110 C.3       1 A0T         0.0339
      3 N03         4.9360   -4.8250   17.9020 N.pl3     1 A0T        -0.2853
      4 C04         4.8110   -3.7590   18.6270 C.ar      1 A0T         0.1497
      5 C05         5.8510   -2.8250   18.8510 C.ar      1 A0T         0.0978
      6 C06         5.5880   -1.7000   19.6030 C.ar      1 A0T         0.0374
      7 N07         4.3560   -1.6030   20.0790 N.ar      1 A0T        -0.2275
      8 C08         3.4100   -2.5430   19.9190 C.ar      1 A0T         0.2276
      9 N09         3.6160   -3.6190   19.1790 N.ar      1 A0T        -0.2078
     10 N10         2.2320   -2.3300   20.4910 N.pl3     1 A0T        -0.2279
     11 C11         1.0670   -3.0770   20.3330 C.ar      1 A0T         0.1093
     12 C12         0.8350   -3.9430   19.2450 C.ar      1 A0T        -0.0025
     13 C13        -0.4220   -4.5820   19.1790 C.ar      1 A0T         0.1346
     14 C14        -1.4060   -4.4030   20.1240 C.ar      1 A0T         0.0647
     15 C15        -1.1830   -3.5290   21.1740 C.ar      1 A0T        -0.0215
     16 C16         0.0590   -2.8870   21.3050 C.ar      1 A0T         0.1208
     17 O17         0.3220   -2.0240   22.3490 O.3       1 A0T        -0.3248
     18 C18        -0.5860   -2.0820   23.4580 C.3       1 A0T         0.0568
     19 C19        -2.7900   -5.0940   20.0000 C.2       1 A0T         0.1972
     20 O20        -3.7620   -4.3680   19.7440 O.2       1 A0T        -0.3913
     21 N21        -3.0650   -6.3770   20.3450 N.am      1 A0T        -0.2702
     22 C22        -4.4660   -6.7750   20.6700 C.3       1 A0T         0.0565
     23 C23        -4.5890   -6.8750   22.2000 C.3       1 A0T         0.0680
     24 O24        -3.6990   -7.9660   22.5900 O.3       1 A0T        -0.3758
     25 C25        -2.3100   -7.9780   22.0500 C.3       1 A0T         0.0680
     26 C26        -2.0330   -7.3780   20.6590 C.3       1 A0T         0.0565
     27 C28         7.2340   -2.9650   18.2280 C.3       1 A0T         0.3622
     28 F27        -0.7480   -5.4140   18.2080 F         1 A0T        -0.1888
     29 F29         7.1300   -2.8890   16.8600 F         1 A0T        -0.2412
     30 F30         7.7630   -4.1380   18.6610 F         1 A0T        -0.2412
     31 F31         7.9660   -1.9610   18.5930 F         1 A0T        -0.2412
     32 H1          2.6406   -6.8053   16.3461 H         1 A0T         0.0251
     33 H2          4.3563   -6.5472   15.8808 H         1 A0T         0.0251
     34 H3          3.1986   -5.1743   15.8413 H         1 A0T         0.0251
     35 H4          4.0969   -6.6953   18.3331 H         1 A0T         0.0540
     36 H5          2.9392   -5.3224   18.2936 H         1 A0T         0.0540
     37 H6          5.8131   -5.0074   17.3938 H         1 A0T         0.1978
     38 H7          6.3410   -0.9436   19.7925 H         1 A0T         0.1102
     39 H8          2.1721   -1.5198   21.1242 H         1 A0T         0.2293
     40 H9          1.5926   -4.1117   18.4883 H         1 A0T         0.0521
     41 H10        -1.9686   -3.3398   21.8965 H         1 A0T         0.0551
     42 H11        -0.2773   -1.3544   24.2230 H         1 A0T         0.0573
     43 H12        -0.5745   -3.0941   23.8888 H         1 A0T         0.0573
     44 H13        -1.6024   -1.8419   23.1127 H         1 A0T         0.0573
     45 H14        -4.6929   -7.7494   20.2128 H         1 A0T         0.0544
     46 H15        -5.1672   -6.0185   20.2878 H         1 A0T         0.0544
     47 H16        -5.6258   -7.1022   22.4888 H         1 A0T         0.0580
     48 H17        -4.2743   -5.9335   22.6738 H         1 A0T         0.0580
     49 H18        -1.9893   -9.0296   22.0146 H         1 A0T         0.0580
     50 H19        -1.6831   -7.4273   22.7667 H         1 A0T         0.0580
     51 H20        -1.0432   -6.8981   20.6567 H         1 A0T         0.0544
     52 H21        -2.0548   -8.1772   19.9035 H         1 A0T         0.0544
@<TRIPOS>BOND
     1    1    2 1  
     2    2    3 1  
     3    3    4 1  
     4    4    5 ar 
     5    4    9 ar 
     6    5    6 ar 
     7    5   27 1  
     8    6    7 ar 
     9    7    8 ar 
    10    8    9 ar 
    11    8   10 1  
    12   10   11 1  
    13   11   12 ar 
    14   11   16 ar 
    15   12   13 ar 
    16   13   14 ar 
    17   13   28 1  
    18   14   15 ar 
    19   14   19 1  
    20   15   16 ar 
    21   16   17 1  
    22   17   18 1  
    23   19   20 2  
    24   19   21 am 
    25   21   22 1  
    26   21   26 1  
    27   22   23 1  
    28   23   24 1  
    29   24   25 1  
    30   25   26 1  
    31   27   29 1  
    32   27   30 1  
    33   27   31 1  
    34    1   32 1  
    35    1   33 1  
    36    1   34 1  
    37    2   35 1  
    38    2   36 1  
    39    3   37 1  
    40    6   38 1  
    41   10   39 1  
    42   12   40 1  
    43   15   41 1  
    44   18   42 1  
    45   18   43 1  
    46   18   44 1  
    47   22   45 1  
    48   22   46 1  
    49   23   47 1  
    50   23   48 1  
    51   25   49 1  
    52   25   50 1  
    53   26   51 1  
    54   26   52 1  
@<TRIPOS>SUBSTRUCTURE
     1 A0T         1

