5op4_ligand
  -I-interpret- 

 52 54  0  0  0  0  0  0  0  0999 V2000
    3.4810   -6.0960   16.3710 C   0  0  0  0  0
    3.8220   -5.7670   17.8110 C   0  0  0  0  0
    4.9360   -4.8250   17.9020 N   0  0  0  0  0
    4.8110   -3.7590   18.6270 C   0  0  0  0  0
    5.8510   -2.8250   18.8510 C   0  0  0  0  0
    5.5880   -1.7000   19.6030 C   0  0  0  0  0
    4.3560   -1.6030   20.0790 N   0  0  0  0  0
    3.4100   -2.5430   19.9190 C   0  0  0  0  0
    3.6160   -3.6190   19.1790 N   0  0  0  0  0
    2.2320   -2.3300   20.4910 N   0  0  0  0  0
    1.0670   -3.0770   20.3330 C   0  0  0  0  0
    0.8350   -3.9430   19.2450 C   0  0  0  0  0
   -0.4220   -4.5820   19.1790 C   0  0  0  0  0
   -1.4060   -4.4030   20.1240 C   0  0  0  0  0
   -1.1830   -3.5290   21.1740 C   0  0  0  0  0
    0.0590   -2.8870   21.3050 C   0  0  0  0  0
    0.3220   -2.0240   22.3490 O   0  0  0  0  0
   -0.5860   -2.0820   23.4580 C   0  0  0  0  0
   -2.7900   -5.0940   20.0000 C   0  0  0  0  0
   -3.7620   -4.3680   19.7440 O   0  0  0  0  0
   -3.0650   -6.3770   20.3450 N   0  0  0  0  0
   -4.4660   -6.7750   20.6700 C   0  0  0  0  0
   -4.5890   -6.8750   22.2000 C   0  0  0  0  0
   -3.6990   -7.9660   22.5900 O   0  0  0  0  0
   -2.3100   -7.9780   22.0500 C   0  0  0  0  0
   -2.0330   -7.3780   20.6590 C   0  0  0  0  0
    7.2340   -2.9650   18.2280 C   0  0  0  0  0
   -0.7480   -5.4140   18.2080 F   0  0  0  0  0
    7.1300   -2.8890   16.8600 F   0  0  0  0  0
    7.7630   -4.1380   18.6610 F   0  0  0  0  0
    7.9660   -1.9610   18.5930 F   0  0  0  0  0
    3.2014   -5.1819   15.8472 H   0  0  0  0  0
    4.3491   -6.5429   15.8864 H   0  0  0  0  0
    2.6482   -6.7989   16.3476 H   0  0  0  0  0
    4.1108   -6.6895   18.3146 H   0  0  0  0  0
    2.9477   -5.3103   18.2749 H   0  0  0  0  0
    5.8046   -5.0057   17.3987 H   0  0  0  0  0
    6.3452   -0.9394   19.7935 H   0  0  0  0  0
    2.1727   -1.5277   21.1180 H   0  0  0  0  0
    1.5968   -4.1126   18.4841 H   0  0  0  0  0
   -1.9730   -3.3387   21.9005 H   0  0  0  0  0
   -1.5927   -1.8440   23.1145 H   0  0  0  0  0
   -0.5737   -3.0853   23.8839 H   0  0  0  0  0
   -0.2791   -1.3606   24.2153 H   0  0  0  0  0
   -4.7012   -7.7347   20.2098 H   0  0  0  0  0
   -5.1669   -6.0352   20.2834 H   0  0  0  0  0
   -5.6169   -7.0675   22.5073 H   0  0  0  0  0
   -4.3123   -5.9394   22.6859 H   0  0  0  0  0
   -2.0606   -9.0344   21.9506 H   0  0  0  0  0
   -1.7396   -7.3550   22.7389 H   0  0  0  0  0
   -1.0519   -6.9030   20.6559 H   0  0  0  0  0
   -2.0536   -8.1697   19.9101 H   0  0  0  0  0
  1  2  1  0  0  0
  2  3  1  0  0  0
  3  4  1  0  0  0
  4  5  4  0  0  0
  4  9  4  0  0  0
  5  6  4  0  0  0
  5 27  1  0  0  0
  6  7  4  0  0  0
  7  8  4  0  0  0
  8  9  4  0  0  0
  8 10  1  0  0  0
 10 11  1  0  0  0
 11 12  4  0  0  0
 11 16  4  0  0  0
 12 13  4  0  0  0
 13 14  4  0  0  0
 13 28  1  0  0  0
 14 15  4  0  0  0
 14 19  1  0  0  0
 15 16  4  0  0  0
 16 17  1  0  0  0
 17 18  1  0  0  0
 19 20  2  0  0  0
 19 21  1  0  0  0
 21 22  1  0  0  0
 21 26  1  0  0  0
 22 23  1  0  0  0
 23 24  1  0  0  0
 24 25  1  0  0  0
 25 26  1  0  0  0
 27 29  1  0  0  0
 27 30  1  0  0  0
 27 31  1  0  0  0
  1 32  1  0  0  0
  1 33  1  0  0  0
  1 34  1  0  0  0
  2 35  1  0  0  0
  2 36  1  0  0  0
  3 37  1  0  0  0
  6 38  1  0  0  0
 10 39  1  0  0  0
 12 40  1  0  0  0
 15 41  1  0  0  0
 18 42  1  0  0  0
 18 43  1  0  0  0
 18 44  1  0  0  0
 22 45  1  0  0  0
 22 46  1  0  0  0
 23 47  1  0  0  0
 23 48  1  0  0  0
 25 49  1  0  0  0
 25 50  1  0  0  0
 26 51  1  0  0  0
 26 52  1  0  0  0
M  END
$$$$
