3ekt_ligand
  -I-interpret- 

 75 78  0  0  0  0  0  0  0  0999 V2000
   22.6540   48.8330  -11.0660 N   0  0  0  0  0
   22.3510   47.5880  -10.6590 C   0  0  0  0  0
   22.9330   47.1040   -9.4990 C   0  0  0  0  0
   22.6210   45.8270   -9.0890 C   0  0  0  0  0
   21.7140   45.0900   -9.8320 C   0  0  0  0  0
   21.1990   45.6770  -10.9790 C   0  0  0  0  0
   21.5180   46.8790  -11.3360 C   0  0  0  0  0
   21.2920   43.5830   -9.4290 S   0  0  0  0  0
   22.3600   42.8080   -8.8610 O   0  0  0  0  0
   20.8370   42.8890  -10.6090 O   0  0  0  0  0
   20.0570   43.5680   -8.3690 N   0  0  0  0  0
   20.2980   44.5140   -7.2800 C   0  0  0  0  0
   19.7790   43.9830   -5.9540 C   0  0  0  0  0
   20.2570   42.5660   -5.6930 C   0  0  0  0  0
   20.2370   44.9210   -4.8480 C   0  0  0  0  0
   18.7980   43.8890   -9.0340 C   0  0  0  0  0
   17.8270   42.7420   -8.7950 C   0  0  0  0  0
   16.5220   43.2360   -9.0850 O   0  0  0  0  0
   18.2170   41.5130   -9.6360 C   0  0  0  0  0
   17.4270   40.3960   -9.1660 N   0  0  0  0  0
   17.9650   39.3670   -8.4870 C   0  0  0  0  0
   19.1390   39.2940   -8.1710 O   0  0  0  0  0
   16.9840   38.3730   -8.0600 O   0  0  0  0  0
   17.2970   37.0180   -7.7810 C   0  0  0  0  0
   16.3440   36.6290   -6.6590 C   0  0  0  0  0
   15.1600   36.1190   -7.2910 O   0  0  0  0  0
   15.4650   35.7090   -8.6430 C   0  0  0  0  0
   14.6330   36.3590   -9.6290 O   0  0  0  0  0
   15.4230   37.0610  -10.5960 C   0  0  0  0  0
   16.8890   36.7350  -10.3120 C   0  0  0  0  0
   16.9030   36.1060   -8.9250 C   0  0  0  0  0
   17.9020   41.6420  -11.1230 C   0  0  0  0  0
   17.3240   39.6430  -12.5130 C   0  0  0  0  0
   17.6740   38.4590  -13.1580 C   0  0  0  0  0
   18.9940   38.0140  -13.1590 C   0  0  0  0  0
   19.9620   38.7430  -12.4730 C   0  0  0  0  0
   19.6090   39.9240  -11.8160 C   0  0  0  0  0
   18.2900   40.3700  -11.8310 C   0  0  0  0  0
   23.3023   49.4034  -10.5231 H   0  0  0  0  0
   22.2356   49.2071  -11.9177 H   0  0  0  0  0
   23.6231   47.7207   -8.9231 H   0  0  0  0  0
   23.0798   45.4037   -8.1954 H   0  0  0  0  0
   20.5049   45.1084  -11.5978 H   0  0  0  0  0
   21.0689   47.3022  -12.2345 H   0  0  0  0  0
   19.7749   45.4427   -7.5080 H   0  0  0  0  0
   21.3730   44.6712   -7.1914 H   0  0  0  0  0
   18.6901   43.9458   -5.9843 H   0  0  0  0  0
   19.9015   41.9116   -6.4889 H   0  0  0  0  0
   21.3466   42.5504   -5.6675 H   0  0  0  0  0
   19.8649   42.2222   -4.7358 H   0  0  0  0  0
   21.3262   44.9596   -4.8339 H   0  0  0  0  0
   19.8391   45.9190   -5.0318 H   0  0  0  0  0
   19.8727   44.5543   -3.8883 H   0  0  0  0  0
   18.9629   44.0233  -10.1030 H   0  0  0  0  0
   18.3884   44.8160   -8.6328 H   0  0  0  0  0
   17.8546   42.3977   -7.7612 H   0  0  0  0  0
   15.8783   42.5376   -8.9452 H   0  0  0  0  0
   19.2948   41.3943   -9.5250 H   0  0  0  0  0
   16.4250   40.3884   -9.3565 H   0  0  0  0  0
   18.3630   36.9237   -7.5740 H   0  0  0  0  0
   16.1118   37.4870   -6.0281 H   0  0  0  0  0
   16.7928   35.8797   -6.0069 H   0  0  0  0  0
   15.2921   34.6352   -8.7154 H   0  0  0  0  0
   15.2495   38.1347  -10.5242 H   0  0  0  0  0
   15.1521   36.7539  -11.6062 H   0  0  0  0  0
   17.5124   37.6282  -10.3524 H   0  0  0  0  0
   17.3010   36.0595  -11.0617 H   0  0  0  0  0
   17.6425   35.3059   -8.9570 H   0  0  0  0  0
   18.4636   42.4769  -11.5422 H   0  0  0  0  0
   16.8346   41.8196  -11.2541 H   0  0  0  0  0
   16.2938   39.9978  -12.5438 H   0  0  0  0  0
   16.9073   37.8749  -13.6670 H   0  0  0  0  0
   19.2668   37.1032  -13.6921 H   0  0  0  0  0
   20.9938   38.3925  -12.4488 H   0  0  0  0  0
   20.3700   40.4994  -11.2888 H   0  0  0  0  0
  2  1  1  0  0  0
  3  2  4  0  0  0
  7  2  4  0  0  0
  4  3  4  0  0  0
  5  4  4  0  0  0
  5  6  4  0  0  0
  8  5  1  0  0  0
  6  7  4  0  0  0
  8  9  2  0  0  0
  8 10  2  0  0  0
 11  8  1  0  0  0
 11 12  1  0  0  0
 16 11  1  0  0  0
 12 13  1  0  0  0
 13 14  1  0  0  0
 13 15  1  0  0  0
 17 16  1  0  0  0
 17 18  1  0  0  0
 19 17  1  0  0  0
 19 20  1  0  0  0
 32 19  1  0  0  0
 20 21  1  0  0  0
 21 22  2  0  0  0
 21 23  1  0  0  0
 23 24  1  0  0  0
 24 25  1  0  0  0
 24 31  1  0  0  0
 25 26  1  0  0  0
 27 26  1  0  0  0
 27 28  1  0  0  0
 31 27  1  0  0  0
 29 28  1  0  0  0
 30 29  1  0  0  0
 31 30  1  0  0  0
 38 32  1  0  0  0
 33 34  4  0  0  0
 33 38  4  0  0  0
 34 35  4  0  0  0
 35 36  4  0  0  0
 36 37  4  0  0  0
 37 38  4  0  0  0
  1 39  1  0  0  0
  1 40  1  0  0  0
  3 41  1  0  0  0
  4 42  1  0  0  0
  6 43  1  0  0  0
  7 44  1  0  0  0
 12 45  1  0  0  0
 12 46  1  0  0  0
 13 47  1  0  0  0
 14 48  1  0  0  0
 14 49  1  0  0  0
 14 50  1  0  0  0
 15 51  1  0  0  0
 15 52  1  0  0  0
 15 53  1  0  0  0
 16 54  1  0  0  0
 16 55  1  0  0  0
 17 56  1  0  0  0
 18 57  1  0  0  0
 19 58  1  0  0  0
 20 59  1  0  0  0
 24 60  1  0  0  0
 25 61  1  0  0  0
 25 62  1  0  0  0
 27 63  1  0  0  0
 29 64  1  0  0  0
 29 65  1  0  0  0
 30 66  1  0  0  0
 30 67  1  0  0  0
 31 68  1  0  0  0
 32 69  1  0  0  0
 32 70  1  0  0  0
 33 71  1  0  0  0
 34 72  1  0  0  0
 35 73  1  0  0  0
 36 74  1  0  0  0
 37 75  1  0  0  0
M  END
$$$$
