### 
### Created by X-TOOL on Mon Sep 10 21:13:01 2018
### 

@<TRIPOS>MOLECULE
3ekt_ligand
   75    78     1     0     0
SMALL
GAST_HUCK


@<TRIPOS>ATOM
      1 N1         22.6540   48.8330  -11.0660 N.pl3     1 017        -0.3369
      2 C2         22.3510   47.5880  -10.6590 C.ar      1 017         0.0353
      3 C3         22.9330   47.1040   -9.4990 C.ar      1 017        -0.0429
      4 C4         22.6210   45.8270   -9.0890 C.ar      1 017        -0.0471
      5 C5         21.7140   45.0900   -9.8320 C.ar      1 017         0.0949
      6 C6         21.1990   45.6770  -10.9790 C.ar      1 017        -0.0471
      7 C7         21.5180   46.8790  -11.3360 C.ar      1 017        -0.0429
      8 S8         21.2920   43.5830   -9.4290 S.o2      1 017         0.0648
      9 O9         22.3600   42.8080   -8.8610 O.2       1 017        -0.1518
     10 O10        20.8370   42.8890  -10.6090 O.2       1 017        -0.1518
     11 N11        20.0570   43.5680   -8.3690 N.am      1 017        -0.2327
     12 C12        20.2980   44.5140   -7.2800 C.3       1 017         0.0319
     13 C13        19.7790   43.9830   -5.9540 C.3       1 017        -0.0296
     14 C14        20.2570   42.5660   -5.6930 C.3       1 017        -0.0612
     15 C15        20.2370   44.9210   -4.8480 C.3       1 017        -0.0612
     16 C16        18.7980   43.8890   -9.0340 C.3       1 017         0.0578
     17 C17        17.8270   42.7420   -8.7950 C.3       1 017         0.0967
     18 O18        16.5220   43.2360   -9.0850 O.3       1 017        -0.3877
     19 C19        18.2170   41.5130   -9.6360 C.3       1 017         0.0807
     20 N20        17.4270   40.3960   -9.1660 N.am      1 017        -0.2550
     21 C21        17.9650   39.3670   -8.4870 C.2       1 017         0.3203
     22 O22        19.1390   39.2940   -8.1710 O.2       1 017        -0.3775
     23 O23        16.9840   38.3730   -8.0600 O.3       1 017        -0.2578
     24 C24        17.2970   37.0180   -7.7810 C.3       1 017         0.1189
     25 C25        16.3440   36.6290   -6.6590 C.3       1 017         0.0815
     26 O26        15.1600   36.1190   -7.2910 O.3       1 017        -0.3480
     27 C27        15.4650   35.7090   -8.6430 C.3       1 017         0.1648
     28 O28        14.6330   36.3590   -9.6290 O.3       1 017        -0.3509
     29 C29        15.4230   37.0610  -10.5960 C.3       1 017         0.0512
     30 C30        16.8890   36.7350  -10.3120 C.3       1 017        -0.0191
     31 C31        16.9030   36.1060   -8.9250 C.3       1 017         0.0449
     32 C32        17.9020   41.6420  -11.1230 C.3       1 017         0.0064
     33 C33        17.3240   39.6430  -12.5130 C.ar      1 017        -0.0603
     34 C34        17.6740   38.4590  -13.1580 C.ar      1 017        -0.0686
     35 C35        18.9940   38.0140  -13.1590 C.ar      1 017        -0.0687
     36 C36        19.9620   38.7430  -12.4730 C.ar      1 017        -0.0686
     37 C37        19.6090   39.9240  -11.8160 C.ar      1 017        -0.0603
     38 C38        18.2900   40.3700  -11.8310 C.ar      1 017        -0.0408
     39 H1         23.3206   49.4033  -10.5263 H         1 017         0.1719
     40 H2         22.2196   49.2165  -11.9175 H         1 017         0.1719
     41 H3         23.6193   47.7173   -8.9263 H         1 017         0.0515
     42 H4         23.0773   45.4061   -8.2004 H         1 017         0.0602
     43 H5         20.5087   45.1115  -11.5944 H         1 017         0.0602
     44 H6         21.0714   47.2999  -12.2295 H         1 017         0.0515
     45 H7         19.7876   45.4609   -7.5099 H         1 017         0.0480
     46 H8         21.3801   44.6921   -7.1945 H         1 017         0.0480
     47 H9         18.6794   43.9760   -5.9823 H         1 017         0.0311
     48 H10        19.8619   42.2178   -4.7272 H         1 017         0.0233
     49 H11        21.3565   42.5489   -5.6670 H         1 017         0.0233
     50 H12        19.8988   41.9045   -6.4956 H         1 017         0.0233
     51 H13        19.8791   45.9394   -5.0594 H         1 017         0.0233
     52 H14        21.3359   44.9214   -4.7992 H         1 017         0.0233
     53 H15        19.8273   44.5808   -3.8855 H         1 017         0.0233
     54 H16        18.9684   44.0135  -10.1136 H         1 017         0.0504
     55 H17        18.3842   44.8196   -8.6184 H         1 017         0.0504
     56 H18        17.8651   42.4515   -7.7347 H         1 017         0.0634
     57 H19        16.4873   43.5237   -9.9898 H         1 017         0.2100
     58 H20        19.2911   41.3148   -9.5057 H         1 017         0.0604
     59 H21        16.4446   40.3886   -9.3528 H         1 017         0.1873
     60 H22        18.3562   36.8957   -7.5106 H         1 017         0.0675
     61 H23        16.0990   37.5088   -6.0459 H         1 017         0.0590
     62 H24        16.7997   35.8549   -6.0241 H         1 017         0.0590
     63 H25        15.3447   34.6189   -8.7281 H         1 017         0.0913
     64 H26        15.2542   38.1441  -10.5046 H         1 017         0.0561
     65 H27        15.1546   36.7324  -11.6109 H         1 017         0.0561
     66 H28        17.4965   37.6519  -10.3247 H         1 017         0.0293
     67 H29        17.2775   36.0274  -11.0592 H         1 017         0.0293
     68 H30        17.5669   35.2290   -8.9335 H         1 017         0.0380
     69 H31        18.4687   42.4845  -11.5461 H         1 017         0.0449
     70 H32        16.8248   41.8213  -11.2554 H         1 017         0.0449
     71 H33        16.2995   39.9959  -12.5436 H         1 017         0.0557
     72 H34        16.9115   37.8781  -13.6642 H         1 017         0.0599
     73 H35        19.2653   37.1082  -13.6891 H         1 017         0.0559
     74 H36        20.9881   38.3944  -12.4489 H         1 017         0.0599
     75 H37        20.3658   40.4963  -11.2917 H         1 017         0.0557
@<TRIPOS>BOND
     1    2    1 1  
     2    3    2 ar 
     3    7    2 ar 
     4    4    3 ar 
     5    5    4 ar 
     6    5    6 ar 
     7    8    5 1  
     8    6    7 ar 
     9    8    9 2  
    10    8   10 2  
    11   11    8 am 
    12   11   12 1  
    13   16   11 1  
    14   12   13 1  
    15   13   14 1  
    16   13   15 1  
    17   17   16 1  
    18   17   18 1  
    19   19   17 1  
    20   19   20 1  
    21   32   19 1  
    22   20   21 am 
    23   21   22 2  
    24   21   23 1  
    25   23   24 1  
    26   24   25 1  
    27   24   31 1  
    28   25   26 1  
    29   27   26 1  
    30   27   28 1  
    31   31   27 1  
    32   29   28 1  
    33   30   29 1  
    34   31   30 1  
    35   38   32 1  
    36   33   34 ar 
    37   33   38 ar 
    38   34   35 ar 
    39   35   36 ar 
    40   36   37 ar 
    41   37   38 ar 
    42    1   39 1  
    43    1   40 1  
    44    3   41 1  
    45    4   42 1  
    46    6   43 1  
    47    7   44 1  
    48   12   45 1  
    49   12   46 1  
    50   13   47 1  
    51   14   48 1  
    52   14   49 1  
    53   14   50 1  
    54   15   51 1  
    55   15   52 1  
    56   15   53 1  
    57   16   54 1  
    58   16   55 1  
    59   17   56 1  
    60   18   57 1  
    61   19   58 1  
    62   20   59 1  
    63   24   60 1  
    64   25   61 1  
    65   25   62 1  
    66   27   63 1  
    67   29   64 1  
    68   29   65 1  
    69   30   66 1  
    70   30   67 1  
    71   31   68 1  
    72   32   69 1  
    73   32   70 1  
    74   33   71 1  
    75   34   72 1  
    76   35   73 1  
    77   36   74 1  
    78   37   75 1  
@<TRIPOS>SUBSTRUCTURE
     1 017         1

