### 
### Created by X-TOOL on Mon Sep 10 21:13:18 2018
### 

@<TRIPOS>MOLECULE
4lm0_ligand
   17    18     1     0     0
SMALL
GAST_HUCK


@<TRIPOS>ATOM
      1 C6          5.4120   11.0670   43.2010 C.ar      1 5NI        -0.0188
      2 C7          4.7790   12.1680   43.7810 C.ar      1 5NI        -0.0506
      3 C8          4.1180   13.0390   42.9090 C.ar      1 5NI        -0.0081
      4 C9          4.0920   12.8230   41.5310 C.ar      1 5NI         0.0409
      5 C4          4.7260   11.7240   40.9550 C.ar      1 5NI        -0.0038
      6 C5          5.3920   10.8450   41.8160 C.ar      1 5NI         0.2006
      7 N1          3.4150   14.1730   43.1320 N.2       1 5NI        -0.3313
      8 N2          2.9650   14.6680   41.9760 N.pl3     1 5NI        -0.2441
      9 C3          3.3600   13.8630   40.9660 C.2       1 5NI         0.1107
     10 N10         6.0180    9.7730   41.2700 N.2       1 5NI         0.3148
     11 O11         7.2170    9.5740   41.4770 O.2       1 5NI         0.1782
     12 O12         5.3960    9.0000   40.5580 O.2       1 5NI         0.1782
     13 H           5.9340   10.3634   43.8394 H         1 5NI         0.0692
     14 H           4.7988   12.3388   44.8513 H         1 5NI         0.0633
     15 H           4.7041   11.5570   39.8842 H         1 5NI         0.0703
     16 H           2.4059   15.5267   41.8714 H         1 5NI         0.2935
     17 H           3.1457   14.0018   39.9073 H         1 5NI         0.1370
@<TRIPOS>BOND
     1    1    2 ar 
     2    1    6 ar 
     3    2    3 ar 
     4    3    4 ar 
     5    3    7 2  
     6    4    5 ar 
     7    4    9 2  
     8    5    6 ar 
     9    6   10 1  
    10    7    8 1  
    11    8    9 1  
    12   10   11 2  
    13   10   12 2  
    14    1   13 1  
    15    2   14 1  
    16    5   15 1  
    17    8   16 1  
    18    9   17 1  
@<TRIPOS>SUBSTRUCTURE
     1 5NI         1

