4lm0_ligand
  -I-interpret- 

 16 17  0  0  0  0  0  0  0  0999 V2000
    5.4120   11.0670   43.2010 C   0  0  0  0  0
    4.7790   12.1680   43.7810 C   0  0  0  0  0
    4.1180   13.0390   42.9090 C   0  0  0  0  0
    4.0920   12.8230   41.5310 C   0  0  0  0  0
    4.7260   11.7240   40.9550 C   0  0  0  0  0
    5.3920   10.8450   41.8160 C   0  0  0  0  0
    3.4150   14.1730   43.1320 N   0  0  0  0  0
    2.9650   14.6680   41.9760 N   0  0  0  0  0
    3.3600   13.8630   40.9660 C   0  0  0  0  0
    6.0180    9.7730   41.2700 N   0  0  0  0  0
    7.2170    9.5740   41.4770 O   0  0  0  0  0
    5.3960    9.0000   40.5580 O   0  0  0  0  0
    5.9369   10.3595   43.8429 H   0  0  0  0  0
    4.7989   12.3397   44.8572 H   0  0  0  0  0
    4.7040   11.5560   39.8782 H   0  0  0  0  0
    3.1455   14.0019   39.9064 H   0  0  0  0  0
  1  2  4  0  0  0
  1  6  4  0  0  0
  2  3  4  0  0  0
  3  4  4  0  0  0
  3  7  4  0  0  0
  4  5  4  0  0  0
  4  9  4  0  0  0
  5  6  4  0  0  0
  6 10  1  0  0  0
  7  8  4  0  0  0
  8  9  4  0  0  0
 10 11  2  0  0  0
 10 12  2  0  0  0
  1 13  1  0  0  0
  2 14  1  0  0  0
  5 15  1  0  0  0
  9 16  1  0  0  0
M  END
$$$$
