1zpa_ligand
  -I-interpret- 

 99102  0  0  0  0  0  0  0  0999 V2000
  -11.3110   15.0080   33.1070 C   0  0  0  0  0
  -11.9100   16.0560   32.9280 O   0  0  0  0  0
   -9.9930   14.9170   32.9080 N   0  0  0  0  0
   -9.1460   15.9350   32.2870 C   0  0  0  0  0
   -9.1490   15.7330   30.7820 C   0  0  0  0  0
  -10.0110   16.3390   29.9000 C   0  0  0  0  0
   -9.6790   15.9110   28.6510 N   0  0  0  0  0
   -8.6370   15.0360   28.8100 N   0  0  0  0  0
   -8.3210   14.9250   30.0560 N   0  0  0  0  0
  -10.2530   16.1940   27.3260 C   0  0  0  0  0
  -10.0740   17.7050   26.9270 C   0  0  0  0  0
   -9.6400   17.9140   25.4410 C   0  0  0  0  0
   -8.4720   17.1300   25.1160 N   0  0  0  0  0
   -7.1610   17.6470   25.4380 C   0  0  0  0  0
   -6.2770   16.7300   26.3240 C   0  0  0  0  0
   -4.8430   16.5550   25.7790 C   0  0  0  0  0
   -6.3080   17.1020   27.8300 C   0  0  0  0  0
   -8.6280   15.7260   24.1070 S   0  0  0  0  0
   -9.9520   15.1690   24.2520 O   0  0  0  0  0
   -7.6860   14.7010   24.4530 O   0  0  0  0  0
   -8.4070   16.1390   22.4360 C   0  0  0  0  0
   -7.1640   15.9780   21.8390 C   0  0  0  0  0
   -6.9810   16.3120   20.4880 C   0  0  0  0  0
   -8.0520   16.8220   19.7800 C   0  0  0  0  0
   -9.3060   16.9630   20.3690 C   0  0  0  0  0
   -9.4810   16.6190   21.6980 C   0  0  0  0  0
   -7.9040   17.1310   18.4830 O   0  0  0  0  0
   -6.7140   16.9930   17.7380 C   0  0  0  0  0
  -11.7160   15.6530   27.3280 C   0  0  0  0  0
  -11.2450   18.4740   27.1270 O   0  0  0  0  0
  -11.9790   14.2230   27.7210 C   0  0  0  0  0
  -11.4590   13.1770   26.9470 C   0  0  0  0  0
  -11.6970   11.8540   27.2910 C   0  0  0  0  0
  -12.4440   11.5570   28.4270 C   0  0  0  0  0
  -12.9610   12.5870   29.2060 C   0  0  0  0  0
  -12.7470   13.9110   28.8420 C   0  0  0  0  0
  -12.0760   13.8560   33.5520 C   0  0  0  0  0
  -13.4580   13.9670   33.7050 C   0  0  0  0  0
  -14.1920   12.8660   34.1330 C   0  0  0  0  0
  -13.5560   11.6650   34.4070 C   0  0  0  0  0
  -12.1750   11.5580   34.2540 C   0  0  0  0  0
  -11.4410   12.6550   33.8100 C   0  0  0  0  0
  -14.3300   10.4530   34.8700 C   0  0  0  0  0
  -15.6130   10.8580   35.4650 N   0  0  0  0  0
  -16.7270   10.1300   35.2070 C   0  0  0  0  0
  -17.3980    9.7170   36.1320 O   0  0  0  0  0
  -17.0870    9.8650   33.9500 O   0  0  0  0  0
  -16.5160   10.2600   32.7060 C   0  0  0  0  0
  -17.7600   10.4630   31.7580 C   0  0  0  0  0
  -15.7490   11.5930   32.8650 C   0  0  0  0  0
  -15.6110    9.1300   32.1570 C   0  0  0  0  0
   -9.5357   14.0593   33.2174 H   0  0  0  0  0
   -8.1281   15.8468   32.6669 H   0  0  0  0  0
   -9.5305   16.9268   32.5247 H   0  0  0  0  0
  -10.8120   17.0335   30.1534 H   0  0  0  0  0
   -9.7194   15.6759   26.5292 H   0  0  0  0  0
   -9.2802   18.0441   27.5926 H   0  0  0  0  0
   -9.4002   18.9674   25.2961 H   0  0  0  0  0
  -10.4588   17.5983   24.7944 H   0  0  0  0  0
   -7.3209   18.5640   26.0051 H   0  0  0  0  0
   -6.6336   17.7640   24.4913 H   0  0  0  0  0
   -6.7419   15.7462   26.2601 H   0  0  0  0  0
   -4.8853   16.1108   24.7845 H   0  0  0  0  0
   -4.3556   17.5284   25.7231 H   0  0  0  0  0
   -4.2793   15.9027   26.4460 H   0  0  0  0  0
   -5.9488   18.1231   27.9582 H   0  0  0  0  0
   -7.3302   17.0258   28.2008 H   0  0  0  0  0
   -5.6668   16.4175   28.3853 H   0  0  0  0  0
   -6.3277   15.5911   22.4212 H   0  0  0  0  0
   -6.0130   16.1717   20.0070 H   0  0  0  0  0
  -10.1454   17.3424   19.7862 H   0  0  0  0  0
  -10.4603   16.7246   22.1648 H   0  0  0  0  0
   -5.9321   17.6047   18.1880 H   0  0  0  0  0
   -6.4052   15.9477   17.7393 H   0  0  0  0  0
   -6.8885   17.3204   16.7131 H   0  0  0  0  0
  -12.0353   15.7166   26.2878 H   0  0  0  0  0
  -12.2287   16.2462   28.0852 H   0  0  0  0  0
  -11.0776   19.3831   26.8679 H   0  0  0  0  0
  -10.8608   13.4052   26.0648 H   0  0  0  0  0
  -11.2997   11.0490   26.6728 H   0  0  0  0  0
  -12.6237   10.5187   28.7060 H   0  0  0  0  0
  -13.5348   12.3553   30.1033 H   0  0  0  0  0
  -13.1834   14.7125   29.4381 H   0  0  0  0  0
  -13.9595   14.9107   33.4905 H   0  0  0  0  0
  -15.2722   12.9477   34.2536 H   0  0  0  0  0
  -11.6709   10.6186   34.4811 H   0  0  0  0  0
  -10.3642   12.5668   33.6656 H   0  0  0  0  0
  -13.7431    9.9232   35.6203 H   0  0  0  0  0
  -14.5247    9.8083   34.0129 H   0  0  0  0  0
  -15.6639   11.6800   36.0668 H   0  0  0  0  0
  -18.3104    9.5257   31.6772 H   0  0  0  0  0
  -18.4101   11.2329   32.1736 H   0  0  0  0  0
  -17.4162   10.7702   30.7703 H   0  0  0  0  0
  -16.4366   12.3682   33.2031 H   0  0  0  0  0
  -14.9524   11.4671   33.5982 H   0  0  0  0  0
  -15.3192   11.8801   31.9053 H   0  0  0  0  0
  -14.8126    8.9267   32.8706 H   0  0  0  0  0
  -16.2063    8.2289   32.0093 H   0  0  0  0  0
  -15.1793    9.4417   31.2059 H   0  0  0  0  0
  1  2  2  0  0  0
  1  3  1  0  0  0
  1 37  1  0  0  0
  3  4  1  0  0  0
  4  5  1  0  0  0
  5  6  4  0  0  0
  5  9  4  0  0  0
  6  7  4  0  0  0
  7  8  4  0  0  0
  7 10  1  0  0  0
  8  9  4  0  0  0
 10 11  1  0  0  0
 10 29  1  0  0  0
 11 12  1  0  0  0
 11 30  1  0  0  0
 12 13  1  0  0  0
 13 14  1  0  0  0
 13 18  1  0  0  0
 14 15  1  0  0  0
 15 16  1  0  0  0
 15 17  1  0  0  0
 18 19  2  0  0  0
 18 20  2  0  0  0
 18 21  1  0  0  0
 21 22  4  0  0  0
 21 26  4  0  0  0
 22 23  4  0  0  0
 23 24  4  0  0  0
 24 25  4  0  0  0
 24 27  1  0  0  0
 25 26  4  0  0  0
 27 28  1  0  0  0
 29 31  1  0  0  0
 31 32  4  0  0  0
 31 36  4  0  0  0
 32 33  4  0  0  0
 33 34  4  0  0  0
 34 35  4  0  0  0
 35 36  4  0  0  0
 37 38  4  0  0  0
 37 42  4  0  0  0
 38 39  4  0  0  0
 39 40  4  0  0  0
 40 41  4  0  0  0
 40 43  1  0  0  0
 41 42  4  0  0  0
 43 44  1  0  0  0
 44 45  1  0  0  0
 45 46  2  0  0  0
 45 47  1  0  0  0
 47 48  1  0  0  0
 48 49  1  0  0  0
 48 50  1  0  0  0
 48 51  1  0  0  0
  3 52  1  0  0  0
  4 53  1  0  0  0
  4 54  1  0  0  0
  6 55  1  0  0  0
 10 56  1  0  0  0
 11 57  1  0  0  0
 12 58  1  0  0  0
 12 59  1  0  0  0
 14 60  1  0  0  0
 14 61  1  0  0  0
 15 62  1  0  0  0
 16 63  1  0  0  0
 16 64  1  0  0  0
 16 65  1  0  0  0
 17 66  1  0  0  0
 17 67  1  0  0  0
 17 68  1  0  0  0
 22 69  1  0  0  0
 23 70  1  0  0  0
 25 71  1  0  0  0
 26 72  1  0  0  0
 28 73  1  0  0  0
 28 74  1  0  0  0
 28 75  1  0  0  0
 29 76  1  0  0  0
 29 77  1  0  0  0
 30 78  1  0  0  0
 32 79  1  0  0  0
 33 80  1  0  0  0
 34 81  1  0  0  0
 35 82  1  0  0  0
 36 83  1  0  0  0
 38 84  1  0  0  0
 39 85  1  0  0  0
 41 86  1  0  0  0
 42 87  1  0  0  0
 43 88  1  0  0  0
 43 89  1  0  0  0
 44 90  1  0  0  0
 49 91  1  0  0  0
 49 92  1  0  0  0
 49 93  1  0  0  0
 50 94  1  0  0  0
 50 95  1  0  0  0
 50 96  1  0  0  0
 51 97  1  0  0  0
 51 98  1  0  0  0
 51 99  1  0  0  0
M  END
$$$$
