3eft_ligand
  -I-interpret- 

 52 53  0  0  0  0  0  0  0  0999 V2000
   -2.4490    9.4920   12.1110 C   0  0  0  0  0
   -1.6850   10.7440   12.5470 C   0  0  0  0  0
   -1.7800   10.9200   14.0640 C   0  0  0  0  0
   -2.2490   11.9770   11.8380 C   0  0  0  0  0
   -0.2710   10.5930   12.1730 N   0  3  0  0  0
   -0.1700   10.3440   10.7380 O   0  0  0  0  0
    0.3310    9.4710   12.9090 C   0  0  0  0  0
    0.1430    9.7060   14.4100 C   0  0  0  0  0
    1.8210    9.4060   12.5700 C   0  0  0  0  0
   -0.3620    8.1740   12.4870 C   0  0  0  0  0
   -1.8550    8.2650   12.8060 C   0  0  0  0  0
   -2.5350    7.0530   12.3270 N   0  0  0  0  0
   -3.0170    6.1730   13.2000 C   0  0  0  0  0
   -2.8450    6.4540   14.8880 S   0  0  0  0  0
   -3.6320    5.0760   12.7680 N   0  0  0  0  0
   -4.1130    4.1960   13.6420 C   0  0  0  0  0
   -5.4070    4.3380   14.1300 C   0  0  0  0  0
   -5.9110    3.4200   15.0430 C   0  0  0  0  0
   -6.3910    5.6590   13.6000 Cl  0  0  0  0  0
   -3.3230    3.1360   14.0680 C   0  0  0  0  0
   -3.8260    2.2170   14.9820 C   0  0  0  0  0
   -5.1200    2.3590   15.4690 C   0  0  0  0  0
   -5.7530    1.2020   16.6190 S   0  0  0  0  0
   -7.2520    1.2570   16.6100 O   0  0  0  0  0
   -5.2490    1.5340   17.9920 O   0  0  0  0  0
   -5.2620   -0.2970   16.2090 N   0  0  0  0  0
   -2.3664    9.3735   11.0306 H   0  0  0  0  0
   -3.4990    9.5927   12.3857 H   0  0  0  0  0
   -1.3592   10.0438   14.5572 H   0  0  0  0  0
   -1.2227   11.8084   14.3610 H   0  0  0  0  0
   -2.8256   11.0328   14.3506 H   0  0  0  0  0
   -1.6874   12.8594   12.1445 H   0  0  0  0  0
   -2.1620   11.8459   10.7594 H   0  0  0  0  0
   -3.2981   12.1010   12.1067 H   0  0  0  0  0
    0.2279   11.4509   12.4086 H   0  0  0  0  0
   -0.5632   11.0770   10.2587 H   0  0  0  0  0
    0.6014    8.8874   14.9648 H   0  0  0  0  0
    0.6159   10.6469   14.6912 H   0  0  0  0  0
   -0.9218    9.7504   14.6390 H   0  0  0  0  0
    2.2969   10.3464   12.8479 H   0  0  0  0  0
    2.2824    8.5869   13.1216 H   0  0  0  0  0
    1.9418    9.2385   11.4997 H   0  0  0  0  0
    0.0747    7.3359   13.0302 H   0  0  0  0  0
   -0.2284    8.0231   11.4158 H   0  0  0  0  0
   -1.9917    8.3545   13.8837 H   0  0  0  0  0
   -2.6371    6.8870   11.3258 H   0  0  0  0  0
   -3.7349    4.9094   11.7670 H   0  0  0  0  0
   -6.9258    3.5315   15.4250 H   0  0  0  0  0
   -2.3084    3.0246   13.6856 H   0  0  0  0  0
   -3.2058    1.3854   15.3165 H   0  0  0  0  0
   -5.9505   -1.0189   15.9965 H   0  0  0  0  0
   -4.2662   -0.5132   16.1649 H   0  0  0  0  0
  1  2  1  0  0  0
  1 11  1  0  0  0
  2  3  1  0  0  0
  2  4  1  0  0  0
  2  5  1  0  0  0
  5  6  1  0  0  0
  5  7  1  0  0  0
  7  8  1  0  0  0
  7  9  1  0  0  0
  7 10  1  0  0  0
 10 11  1  0  0  0
 11 12  1  0  0  0
 12 13  1  0  0  0
 13 14  2  0  0  0
 13 15  1  0  0  0
 15 16  1  0  0  0
 16 17  4  0  0  0
 16 20  4  0  0  0
 17 18  4  0  0  0
 17 19  1  0  0  0
 18 22  4  0  0  0
 20 21  4  0  0  0
 21 22  4  0  0  0
 22 23  1  0  0  0
 23 24  2  0  0  0
 23 25  2  0  0  0
 23 26  1  0  0  0
  1 27  1  0  0  0
  1 28  1  0  0  0
  3 29  1  0  0  0
  3 30  1  0  0  0
  3 31  1  0  0  0
  4 32  1  0  0  0
  4 33  1  0  0  0
  4 34  1  0  0  0
  5 35  1  0  0  0
  6 36  1  0  0  0
  8 37  1  0  0  0
  8 38  1  0  0  0
  8 39  1  0  0  0
  9 40  1  0  0  0
  9 41  1  0  0  0
  9 42  1  0  0  0
 10 43  1  0  0  0
 10 44  1  0  0  0
 11 45  1  0  0  0
 12 46  1  0  0  0
 15 47  1  0  0  0
 18 48  1  0  0  0
 20 49  1  0  0  0
 21 50  1  0  0  0
 26 51  1  0  0  0
 26 52  1  0  0  0
M  END
$$$$
