### 
### Created by X-TOOL on Mon Sep 10 21:13:00 2018
### 

@<TRIPOS>MOLECULE
3eft_ligand
   52    53     1     0     0
SMALL
GAST_HUCK


@<TRIPOS>ATOM
      1 CAQ        -2.4490    9.4920   12.1110 C.3       1 3BS         0.0187
      2 CAR        -1.6850   10.7440   12.5470 C.3       1 3BS         0.0176
      3 CAS        -1.7800   10.9200   14.0640 C.3       1 3BS        -0.0178
      4 CAH        -2.2490   11.9770   11.8380 C.3       1 3BS        -0.0178
      5 NAX        -0.2710   10.5930   12.1730 N.4       1 3BS         0.4016
      6 OAY        -0.1700   10.3440   10.7380 O.3       1 3BS        -0.3412
      7 CAW         0.3310    9.4710   12.9090 C.3       1 3BS         0.0176
      8 CAV         0.1430    9.7060   14.4100 C.3       1 3BS        -0.0178
      9 CAZ         1.8210    9.4060   12.5700 C.3       1 3BS        -0.0178
     10 CAU        -0.3620    8.1740   12.4870 C.3       1 3BS         0.0187
     11 CAP        -1.8550    8.2650   12.8060 C.3       1 3BS         0.0587
     12 NAO        -2.5350    7.0530   12.3270 N.am      1 3BS        -0.2750
     13 CAN        -3.0170    6.1730   13.2000 C.2       1 3BS         0.1633
     14 SAT        -2.8450    6.4540   14.8880 S.2       1 3BS        -0.2962
     15 NAM        -3.6320    5.0760   12.7680 N.am      1 3BS        -0.2309
     16 CAL        -4.1130    4.1960   13.6420 C.ar      1 3BS         0.0868
     17 CAF        -5.4070    4.3380   14.1300 C.ar      1 3BS         0.0635
     18 CAE        -5.9110    3.4200   15.0430 C.ar      1 3BS        -0.0340
     19 CLAG       -6.3910    5.6590   13.6000 Cl        1 3BS        -0.0819
     20 CAK        -3.3230    3.1360   14.0680 C.ar      1 3BS        -0.0365
     21 CAJ        -3.8260    2.2170   14.9820 C.ar      1 3BS        -0.0477
     22 CAD        -5.1200    2.3590   15.4690 C.ar      1 3BS         0.0938
     23 SAC        -5.7530    1.2020   16.6190 S.o2      1 3BS         0.0595
     24 OAI        -7.2520    1.2570   16.6100 O.2       1 3BS        -0.1523
     25 OAA        -5.2490    1.5340   17.9920 O.2       1 3BS        -0.1523
     26 NAB        -5.2620   -0.2970   16.2090 N.am      1 3BS        -0.2625
     27 H1         -2.3653    9.3723   11.0207 H         1 3BS         0.0347
     28 H2         -3.5085    9.5936   12.3885 H         1 3BS         0.0347
     29 H3         -1.2272   11.8226   14.3637 H         1 3BS         0.0287
     30 H4         -1.3454   10.0413   14.5630 H         1 3BS         0.0287
     31 H5         -2.8356   11.0228   14.3558 H         1 3BS         0.0287
     32 H6         -2.1756   11.8394   10.7491 H         1 3BS         0.0287
     33 H7         -1.6733   12.8661   12.1348 H         1 3BS         0.0287
     34 H8         -3.3036   12.1119   12.1202 H         1 3BS         0.0287
     35 H9          0.2239   11.4413   12.3998 H         1 3BS         0.2384
     36 H10         0.7441   10.2467   10.4982 H         1 3BS         0.2695
     37 H11         0.5901    8.8718   14.9705 H         1 3BS         0.0287
     38 H12        -0.9309    9.7682   14.6397 H         1 3BS         0.0287
     39 H13         0.6348   10.6467   14.6983 H         1 3BS         0.0287
     40 H14         2.2847    8.5701   13.1143 H         1 3BS         0.0287
     41 H15         2.3054   10.3488   12.8641 H         1 3BS         0.0287
     42 H16         1.9445    9.2523   11.4878 H         1 3BS         0.0287
     43 H17         0.0788    7.3280   13.0347 H         1 3BS         0.0347
     44 H18        -0.2270    8.0213   11.4061 H         1 3BS         0.0347
     45 H19        -1.9927    8.3567   13.8935 H         1 3BS         0.0583
     46 H20        -2.6351    6.8903   11.3454 H         1 3BS         0.1982
     47 H21        -3.7329    4.9126   11.7866 H         1 3BS         0.2361
     48 H22        -6.9202    3.5309   15.4229 H         1 3BS         0.0604
     49 H23        -2.3140    3.0252   13.6877 H         1 3BS         0.0512
     50 H24        -3.2092    1.3900   15.3147 H         1 3BS         0.0600
     51 H25        -5.5361   -1.0823   16.7642 H         1 3BS         0.1633
     52 H26        -4.6866   -0.4315   15.4023 H         1 3BS         0.1633
@<TRIPOS>BOND
     1    1    2 1  
     2    1   11 1  
     3    2    3 1  
     4    2    4 1  
     5    2    5 1  
     6    5    6 1  
     7    5    7 1  
     8    7    8 1  
     9    7    9 1  
    10    7   10 1  
    11   10   11 1  
    12   11   12 1  
    13   12   13 am 
    14   13   14 2  
    15   13   15 am 
    16   15   16 1  
    17   16   17 ar 
    18   16   20 ar 
    19   17   18 ar 
    20   17   19 1  
    21   18   22 ar 
    22   20   21 ar 
    23   21   22 ar 
    24   22   23 1  
    25   23   24 2  
    26   23   25 2  
    27   23   26 am 
    28    1   27 1  
    29    1   28 1  
    30    3   29 1  
    31    3   30 1  
    32    3   31 1  
    33    4   32 1  
    34    4   33 1  
    35    4   34 1  
    36    5   35 1  
    37    6   36 1  
    38    8   37 1  
    39    8   38 1  
    40    8   39 1  
    41    9   40 1  
    42    9   41 1  
    43    9   42 1  
    44   10   43 1  
    45   10   44 1  
    46   11   45 1  
    47   12   46 1  
    48   15   47 1  
    49   18   48 1  
    50   20   49 1  
    51   21   50 1  
    52   26   51 1  
    53   26   52 1  
@<TRIPOS>SUBSTRUCTURE
     1 3BS         1

