5x74_ligand
  -I-interpret- 

 78 84  0  0  0  0  0  0  0  0999 V2000
   19.4730  -17.4910   16.2820 F   0  0  0  0  0
   19.9510  -16.5850   15.5340 C   0  0  0  0  0
   20.6930  -15.5510   16.1160 C   0  0  0  0  0
   21.2680  -14.5420   15.3530 C   0  0  0  0  0
   21.0780  -14.5750   13.9710 C   0  0  0  0  0
   20.2940  -15.6000   13.3970 C   0  0  0  0  0
   19.7400  -16.6370   14.1740 C   0  0  0  0  0
   18.9510  -17.6940   13.6440 C   0  0  0  0  0
   19.8100  -18.8870   13.4610 N   0  0  0  0  0
   20.5680  -18.9400   12.3340 C   0  0  0  0  0
   21.6720  -19.7320   12.3660 C   0  0  0  0  0
   22.4890  -19.8260   11.2700 C   0  0  0  0  0
   22.1620  -19.0810   10.1690 C   0  0  0  0  0
   21.0350  -18.2950   10.1270 C   0  0  0  0  0
   20.2250  -18.1800   11.2410 C   0  0  0  0  0
   19.0150  -17.3950   11.2080 C   0  0  0  0  0
   18.4480  -17.0730   10.1260 O   0  0  0  0  0
   18.3070  -17.2610   12.3440 N   0  0  0  0  0
   16.9360  -16.6130   12.3370 C   0  0  0  0  0
   15.9590  -17.5840   12.9000 C   0  0  0  0  0
   14.5830  -17.0300   12.6950 C   0  0  0  0  0
   16.8780  -15.3370   13.1730 C   0  0  0  0  0
   15.4600  -14.7100   13.1230 C   0  0  0  0  0
   14.4020  -15.7120   13.4100 N   0  3  0  0  0
   14.1080  -15.7560   14.8540 C   0  0  0  0  0
   13.1470  -14.6020   15.2830 C   0  0  0  0  0
   11.8140  -15.2060   15.6300 N   0  0  0  0  0
   11.4520  -15.4490   16.9100 C   0  0  0  0  0
   12.2830  -15.1870   17.8020 O   0  0  0  0  0
   10.1820  -16.0490   17.1740 C   0  0  0  0  0
    9.7460  -16.3410   18.4660 C   0  0  0  0  0
    8.5140  -16.9970   18.7200 C   0  0  0  0  0
    7.6840  -17.3750   17.6780 C   0  0  0  0  0
    8.1260  -17.1060   16.3770 C   0  0  0  0  0
    9.3480  -16.4580   16.1230 C   0  0  0  0  0
    9.7340  -16.2600   14.8380 N   0  0  0  0  0
   10.8570  -15.3950   14.5010 C   0  0  0  0  0
   10.3630  -14.0960   14.1000 C   0  0  0  0  0
   10.2790  -13.7790   12.7320 C   0  0  0  0  0
   10.5960  -14.5920   11.9530 F   0  0  0  0  0
    9.8230  -12.5510   12.2460 C   0  0  0  0  0
    9.4370  -11.6090   13.1680 C   0  0  0  0  0
    9.5190  -11.8920   14.5330 C   0  0  0  0  0
    9.9860  -13.1010   15.0250 C   0  0  0  0  0
   20.8235  -15.5367   17.1981 H   0  0  0  0  0
   21.8504  -13.7480   15.8204 H   0  0  0  0  0
   21.5325  -13.8133   13.3374 H   0  0  0  0  0
   20.1122  -15.5887   12.3223 H   0  0  0  0  0
   18.1469  -17.9482   14.3346 H   0  0  0  0  0
   19.8317  -19.6372   14.1518 H   0  0  0  0  0
   21.9088  -20.2955   13.2685 H   0  0  0  0  0
   23.3678  -20.4708   11.2746 H   0  0  0  0  0
   22.8162  -19.1121    9.2977 H   0  0  0  0  0
   20.7793  -17.7606    9.2120 H   0  0  0  0  0
   16.7040  -16.3429   11.3068 H   0  0  0  0  0
   16.1490  -17.7352   13.9626 H   0  0  0  0  0
   16.0550  -18.5473   12.3990 H   0  0  0  0  0
   13.8618  -17.7417   13.0969 H   0  0  0  0  0
   14.4332  -16.8663   11.6278 H   0  0  0  0  0
   17.5937  -14.6202   12.7705 H   0  0  0  0  0
   17.1172  -15.5833   14.2075 H   0  0  0  0  0
   15.2952  -14.3162   12.1201 H   0  0  0  0  0
   15.4049  -13.9278   13.8802 H   0  0  0  0  0
   13.5318  -15.3987   12.9798 H   0  0  0  0  0
   15.0452  -15.6431   15.3990 H   0  0  0  0  0
   13.6241  -16.7069   15.0772 H   0  0  0  0  0
   13.0338  -13.8861   14.4689 H   0  0  0  0  0
   13.5556  -14.0747   16.1451 H   0  0  0  0  0
   10.3736  -16.0553   19.3101 H   0  0  0  0  0
    8.2172  -17.2060   19.7478 H   0  0  0  0  0
    6.7264  -17.8617   17.8629 H   0  0  0  0  0
    7.5036  -17.4082   15.5348 H   0  0  0  0  0
    9.2252  -16.7286   14.0884 H   0  0  0  0  0
   11.3942  -15.8868   13.6901 H   0  0  0  0  0
    9.7754  -12.3483   11.1761 H   0  0  0  0  0
    9.0664  -10.6399   12.8340 H   0  0  0  0  0
    9.2017  -11.1284   15.2432 H   0  0  0  0  0
   10.0597  -13.2776   16.0981 H   0  0  0  0  0
  1  2  1  0  0  0
  2  3  4  0  0  0
  2  7  4  0  0  0
  3  4  4  0  0  0
  4  5  4  0  0  0
  5  6  4  0  0  0
  6  7  4  0  0  0
  7  8  1  0  0  0
  8  9  1  0  0  0
  8 18  1  0  0  0
  9 10  1  0  0  0
 10 11  4  0  0  0
 10 15  4  0  0  0
 11 12  4  0  0  0
 12 13  4  0  0  0
 13 14  4  0  0  0
 14 15  4  0  0  0
 15 16  1  0  0  0
 16 17  2  0  0  0
 16 18  1  0  0  0
 18 19  1  0  0  0
 19 20  1  0  0  0
 19 22  1  0  0  0
 20 21  1  0  0  0
 21 24  1  0  0  0
 22 23  1  0  0  0
 23 24  1  0  0  0
 24 25  1  0  0  0
 25 26  1  0  0  0
 26 27  1  0  0  0
 27 28  1  0  0  0
 27 37  1  0  0  0
 28 29  2  0  0  0
 28 30  1  0  0  0
 30 31  4  0  0  0
 30 35  4  0  0  0
 31 32  4  0  0  0
 32 33  4  0  0  0
 33 34  4  0  0  0
 34 35  4  0  0  0
 35 36  1  0  0  0
 36 37  1  0  0  0
 37 38  1  0  0  0
 38 39  4  0  0  0
 38 44  4  0  0  0
 39 40  1  0  0  0
 39 41  4  0  0  0
 41 42  4  0  0  0
 42 43  4  0  0  0
 43 44  4  0  0  0
  3 45  1  0  0  0
  4 46  1  0  0  0
  5 47  1  0  0  0
  6 48  1  0  0  0
  8 49  1  0  0  0
  9 50  1  0  0  0
 11 51  1  0  0  0
 12 52  1  0  0  0
 13 53  1  0  0  0
 14 54  1  0  0  0
 19 55  1  0  0  0
 20 56  1  0  0  0
 20 57  1  0  0  0
 21 58  1  0  0  0
 21 59  1  0  0  0
 22 60  1  0  0  0
 22 61  1  0  0  0
 23 62  1  0  0  0
 23 63  1  0  0  0
 24 64  1  0  0  0
 25 65  1  0  0  0
 25 66  1  0  0  0
 26 67  1  0  0  0
 26 68  1  0  0  0
 31 69  1  0  0  0
 32 70  1  0  0  0
 33 71  1  0  0  0
 34 72  1  0  0  0
 36 73  1  0  0  0
 37 74  1  0  0  0
 41 75  1  0  0  0
 42 76  1  0  0  0
 43 77  1  0  0  0
 44 78  1  0  0  0
M  END
$$$$
