### 
### Created by X-TOOL on Mon Sep 10 21:13:32 2018
### 

@<TRIPOS>MOLECULE
5x74_ligand
   78    84     1     0     0
SMALL
GAST_HUCK


@<TRIPOS>ATOM
      1 FAS        19.4730  -17.4910   16.2820 F         1 JAY        -0.1889
      2 CAN        19.9510  -16.5850   15.5340 C.ar      1 JAY         0.1373
      3 CAO        20.6930  -15.5510   16.1160 C.ar      1 JAY        -0.0347
      4 CAP        21.2680  -14.5420   15.3530 C.ar      1 JAY        -0.0706
      5 CAQ        21.0780  -14.5750   13.9710 C.ar      1 JAY        -0.0724
      6 CAR        20.2940  -15.6000   13.3970 C.ar      1 JAY        -0.0578
      7 CAL        19.7400  -16.6370   14.1740 C.ar      1 JAY         0.0385
      8 CAH        18.9510  -17.6940   13.6440 C.3       1 JAY         0.1594
      9 NAG        19.8100  -18.8870   13.4610 N.pl3     1 JAY        -0.2856
     10 CAE        20.5680  -18.9400   12.3340 C.ar      1 JAY         0.0628
     11 CAD        21.6720  -19.7320   12.3660 C.ar      1 JAY        -0.0379
     12 CAC        22.4890  -19.8260   11.2700 C.ar      1 JAY        -0.0691
     13 CAB        22.1620  -19.0810   10.1690 C.ar      1 JAY        -0.0693
     14 CAA        21.0350  -18.2950   10.1270 C.ar      1 JAY        -0.0533
     15 CAF        20.2250  -18.1800   11.2410 C.ar      1 JAY         0.0674
     16 CAJ        19.0150  -17.3950   11.2080 C.2       1 JAY         0.2029
     17 OAK        18.4480  -17.0730   10.1260 O.2       1 JAY        -0.3917
     18 NAI        18.3070  -17.2610   12.3440 N.am      1 JAY        -0.2376
     19 CAM        16.9360  -16.6130   12.3370 C.3       1 JAY         0.0581
     20 CAT        15.9590  -17.5840   12.9000 C.3       1 JAY         0.0111
     21 CAU        14.5830  -17.0300   12.6950 C.3       1 JAY        -0.0297
     22 CAX        16.8780  -15.3370   13.1730 C.3       1 JAY         0.0111
     23 CAW        15.4600  -14.7100   13.1230 C.3       1 JAY        -0.0297
     24 NAV        14.4020  -15.7120   13.4100 N.4       1 JAY         0.2368
     25 CAY        14.1080  -15.7560   14.8540 C.3       1 JAY        -0.0109
     26 CAZ        13.1470  -14.6020   15.2830 C.3       1 JAY         0.0773
     27 NBA        11.8140  -15.2060   15.6300 N.am      1 JAY        -0.2359
     28 CBB        11.4520  -15.4490   16.9100 C.2       1 JAY         0.2028
     29 OBR        12.2830  -15.1870   17.8020 O.2       1 JAY        -0.3917
     30 CBC        10.1820  -16.0490   17.1740 C.ar      1 JAY         0.0674
     31 CBN         9.7460  -16.3410   18.4660 C.ar      1 JAY        -0.0533
     32 CBO         8.5140  -16.9970   18.7200 C.ar      1 JAY        -0.0693
     33 CBP         7.6840  -17.3750   17.6780 C.ar      1 JAY        -0.0691
     34 CBQ         8.1260  -17.1060   16.3770 C.ar      1 JAY        -0.0379
     35 CBD         9.3480  -16.4580   16.1230 C.ar      1 JAY         0.0628
     36 NBE         9.7340  -16.2600   14.8380 N.pl3     1 JAY        -0.2856
     37 CBF        10.8570  -15.3950   14.5010 C.3       1 JAY         0.1594
     38 CBG        10.3630  -14.0960   14.1000 C.ar      1 JAY         0.0385
     39 CBH        10.2790  -13.7790   12.7320 C.ar      1 JAY         0.1373
     40 FBM        10.5960  -14.5920   11.9530 F         1 JAY        -0.1889
     41 CBI         9.8230  -12.5510   12.2460 C.ar      1 JAY        -0.0347
     42 CBJ         9.4370  -11.6090   13.1680 C.ar      1 JAY        -0.0706
     43 CBK         9.5190  -11.8920   14.5330 C.ar      1 JAY        -0.0724
     44 CBL         9.9860  -13.1010   15.0250 C.ar      1 JAY        -0.0578
     45 H1         20.8228  -15.5368   17.1921 H         1 JAY         0.0585
     46 H2         21.8472  -13.7523   15.8178 H         1 JAY         0.0549
     47 H3         21.5300  -13.8175   13.3409 H         1 JAY         0.0565
     48 H4         20.1132  -15.5887   12.3282 H         1 JAY         0.0547
     49 H5         18.1543  -17.9406   14.3612 H         1 JAY         0.0983
     50 H6         19.8319  -19.6445   14.1585 H         1 JAY         0.1829
     51 H7         21.9075  -20.2924   13.2635 H         1 JAY         0.0529
     52 H8         23.3629  -20.4673   11.2746 H         1 JAY         0.0619
     53 H9         22.8127  -19.1119    9.3025 H         1 JAY         0.0519
     54 H10        20.7807  -17.7636    9.2171 H         1 JAY         0.0634
     55 H11        16.6633  -16.3702   11.2994 H         1 JAY         0.0563
     56 H12        16.1486  -17.7234   13.9745 H         1 JAY         0.0339
     57 H13        16.0529  -18.5502   12.3826 H         1 JAY         0.0339
     58 H14        13.8470  -17.7500   13.0820 H         1 JAY         0.0815
     59 H15        14.4161  -16.8779   11.6184 H         1 JAY         0.0815
     60 H16        17.6063  -14.6135   12.7779 H         1 JAY         0.0339
     61 H17        17.1293  -15.5777   14.2165 H         1 JAY         0.0339
     62 H18        15.2911  -14.2917   12.1198 H         1 JAY         0.0815
     63 H19        15.4002  -13.9054   13.8706 H         1 JAY         0.0815
     64 H20        13.5650  -15.3314   12.9970 H         1 JAY         0.2034
     65 H21        15.0507  -15.6612   15.4129 H         1 JAY         0.0834
     66 H22        13.6357  -16.7204   15.0925 H         1 JAY         0.0834
     67 H23        13.0282  -13.8886   14.4542 H         1 JAY         0.0577
     68 H24        13.5591  -14.0805   16.1595 H         1 JAY         0.0577
     69 H25        10.3702  -16.0568   19.3055 H         1 JAY         0.0634
     70 H26         8.2188  -17.2049   19.7421 H         1 JAY         0.0519
     71 H27         6.7317  -17.8590   17.8619 H         1 JAY         0.0619
     72 H28         7.5070  -17.4066   15.5394 H         1 JAY         0.0529
     73 H29         9.2202  -16.7332   14.0810 H         1 JAY         0.1829
     74 H30        11.3994  -15.8499   13.6591 H         1 JAY         0.0983
     75 H31         9.7757  -12.3494   11.1820 H         1 JAY         0.0585
     76 H32         9.0684  -10.6452   12.8359 H         1 JAY         0.0549
     77 H33         9.2035  -11.1326   15.2393 H         1 JAY         0.0565
     78 H34        10.0593  -13.2766   16.0922 H         1 JAY         0.0547
@<TRIPOS>BOND
     1    1    2 1  
     2    2    3 ar 
     3    2    7 ar 
     4    3    4 ar 
     5    4    5 ar 
     6    5    6 ar 
     7    6    7 ar 
     8    7    8 1  
     9    8    9 1  
    10    8   18 1  
    11    9   10 1  
    12   10   11 ar 
    13   10   15 ar 
    14   11   12 ar 
    15   12   13 ar 
    16   13   14 ar 
    17   14   15 ar 
    18   15   16 1  
    19   16   17 2  
    20   16   18 am 
    21   18   19 1  
    22   19   20 1  
    23   19   22 1  
    24   20   21 1  
    25   21   24 1  
    26   22   23 1  
    27   23   24 1  
    28   24   25 1  
    29   25   26 1  
    30   26   27 1  
    31   27   28 am 
    32   27   37 1  
    33   28   29 2  
    34   28   30 1  
    35   30   31 ar 
    36   30   35 ar 
    37   31   32 ar 
    38   32   33 ar 
    39   33   34 ar 
    40   34   35 ar 
    41   35   36 1  
    42   36   37 1  
    43   37   38 1  
    44   38   39 ar 
    45   38   44 ar 
    46   39   40 1  
    47   39   41 ar 
    48   41   42 ar 
    49   42   43 ar 
    50   43   44 ar 
    51    3   45 1  
    52    4   46 1  
    53    5   47 1  
    54    6   48 1  
    55    8   49 1  
    56    9   50 1  
    57   11   51 1  
    58   12   52 1  
    59   13   53 1  
    60   14   54 1  
    61   19   55 1  
    62   20   56 1  
    63   20   57 1  
    64   21   58 1  
    65   21   59 1  
    66   22   60 1  
    67   22   61 1  
    68   23   62 1  
    69   23   63 1  
    70   24   64 1  
    71   25   65 1  
    72   25   66 1  
    73   26   67 1  
    74   26   68 1  
    75   31   69 1  
    76   32   70 1  
    77   33   71 1  
    78   34   72 1  
    79   36   73 1  
    80   37   74 1  
    81   41   75 1  
    82   42   76 1  
    83   43   77 1  
    84   44   78 1  
@<TRIPOS>SUBSTRUCTURE
     1 JAY         1

