### 
### Created by X-TOOL on Mon Sep 10 21:13:02 2018
### 

@<TRIPOS>MOLECULE
3mfw_ligand
   22    22     1     0     0
SMALL
GAST_HUCK


@<TRIPOS>ATOM
      1 N           4.9060   25.4740   31.2040 N.4       1 B3U         0.2340
      2 CA          4.9090   25.5790   29.7380 C.3       1 B3U         0.0379
      3 CB          4.4850   24.3130   29.0350 C.3       1 B3U         0.0508
      4 CG          3.0360   24.0280   29.1850 C.2       1 B3U         0.0449
      5 CD2         2.1190   24.3010   30.1390 C.2       1 B3U        -0.0512
      6 NE2         0.9480   23.7680   29.6880 N.2       1 B3U        -0.3473
      7 CE1         1.1280   23.1980   28.5120 C.2       1 B3U         0.1942
      8 ND1         2.3960   23.3370   28.1790 N.pl3     1 B3U        -0.2449
      9 NT          0.1920   22.5250   27.6790 N.pl3     1 B3U        -0.3004
     10 C           4.0780   26.8120   29.3450 C.2       1 B3U         0.0864
     11 OXT         3.8010   27.1030   28.1780 O.co2     1 B3U        -0.5641
     12 O           3.6960   27.4960   30.3120 O.co2     1 B3U        -0.5641
     13 H1          5.4463   24.6705   31.4844 H         1 B3U         0.2012
     14 H2          3.9582   25.3725   31.5317 H         1 B3U         0.2012
     15 H3          5.3116   26.3069   31.6014 H         1 B3U         0.2012
     16 H4          5.9463   25.7705   29.4262 H         1 B3U         0.1046
     17 H5          5.0539   23.4705   29.4551 H         1 B3U         0.0495
     18 H6          4.7143   24.4124   27.9638 H         1 B3U         0.0495
     19 H7          2.2815   24.8356   31.0737 H         1 B3U         0.0251
     20 H8          2.8338   22.9885   27.3142 H         1 B3U         0.2341
     21 H9         -0.7907   22.4372   27.9748 H         1 B3U         0.1788
     22 H10         0.4969   22.1254   26.7800 H         1 B3U         0.1788
@<TRIPOS>BOND
     1    1    2 1  
     2    2    3 1  
     3    2   10 1  
     4    3    4 1  
     5    4    5 2  
     6    4    8 1  
     7    5    6 1  
     8    6    7 2  
     9    7    8 1  
    10    7    9 1  
    11   10   11 ar 
    12   10   12 ar 
    13    1   13 1  
    14    1   14 1  
    15    1   15 1  
    16    2   16 1  
    17    3   17 1  
    18    3   18 1  
    19    5   19 1  
    20    8   20 1  
    21    9   21 1  
    22    9   22 1  
@<TRIPOS>SUBSTRUCTURE
     1 B3U         1

