3mfw_ligand
  -I-interpret- 

 22 22  0  0  0  0  0  0  0  0999 V2000
    4.9060   25.4740   31.2040 N   0  3  0  0  0
    4.9090   25.5790   29.7380 C   0  0  0  0  0
    4.4850   24.3130   29.0350 C   0  0  0  0  0
    3.0360   24.0280   29.1850 C   0  0  0  0  0
    2.1190   24.3010   30.1390 C   0  0  0  0  0
    0.9480   23.7680   29.6880 N   0  0  0  0  0
    1.1280   23.1980   28.5120 C   0  0  0  0  0
    2.3960   23.3370   28.1790 N   0  0  0  0  0
    0.1920   22.5250   27.6790 N   0  0  0  0  0
    4.0780   26.8120   29.3450 C   0  0  0  0  0
    3.8010   27.1030   28.1780 O   0  0  0  0  0
    3.6960   27.4960   30.3120 O   0  0  0  0  0
    5.4529   24.6607   31.4865 H   0  0  0  0  0
    5.3165   26.3173   31.6049 H   0  0  0  0  0
    3.9465   25.3714   31.5344 H   0  0  0  0  0
    5.9345   25.7144   29.3943 H   0  0  0  0  0
    5.0356   23.4842   29.4800 H   0  0  0  0  0
    4.6922   24.4366   27.9720 H   0  0  0  0  0
    2.2816   24.8361   31.0746 H   0  0  0  0  0
   -0.7800   22.4335   27.9743 H   0  0  0  0  0
    0.4928   22.1339   26.7863 H   0  0  0  0  0
    4.0154   27.1022   31.1271 H   0  0  0  0  0
  1  2  1  0  0  0
  2  3  1  0  0  0
  2 10  1  0  0  0
  3  4  1  0  0  0
  4  5  4  0  0  0
  4  8  4  0  0  0
  5  6  4  0  0  0
  6  7  4  0  0  0
  7  8  4  0  0  0
  7  9  1  0  0  0
 10 11  2  0  0  0
 10 12  1  0  0  0
  1 13  1  0  0  0
  1 14  1  0  0  0
  1 15  1  0  0  0
  2 16  1  0  0  0
  3 17  1  0  0  0
  3 18  1  0  0  0
  5 19  1  0  0  0
  9 20  1  0  0  0
  9 21  1  0  0  0
 12 22  1  0  0  0
M  END
$$$$
