### 
### Created by X-TOOL on Mon Aug  2 16:15:24 2021
### 

@<TRIPOS>MOLECULE
6nv9_ligand
   97    99     1     0     0
SMALL
GAST_HUCK


@<TRIPOS>ATOM
      1 O01        -0.3750  -19.1010   34.7730 O.2       1 L3M        -0.3847
      2 C02        -0.7350  -18.8550   33.5970 C.2       1 L3M         0.2001
      3 C03         0.2830  -18.6860   32.5980 C.ar      1 L3M         0.0278
      4 C04         0.0970  -17.7330   31.5700 C.ar      1 L3M        -0.0579
      5 C05         1.0930  -17.5190   30.5760 C.ar      1 L3M        -0.0536
      6 C06         0.9110  -16.5010   29.4220 C.3       1 L3M        -0.0220
      7 C07        -0.2640  -15.5280   29.4960 C.3       1 L3M        -0.0417
      8 C08        -1.6400  -15.9480   29.0220 C.3       1 L3M        -0.0416
      9 C09        -2.7640  -15.0520   29.6170 C.3       1 L3M        -0.0206
     10 C10        -2.9180  -15.1770   31.1410 C.ar      1 L3M        -0.0498
     11 C11        -2.4470  -14.1910   31.9970 C.ar      1 L3M        -0.0673
     12 C12        -2.5770  -14.3330   33.3980 C.ar      1 L3M        -0.0752
     13 C13        -3.1690  -15.4940   33.9560 C.ar      1 L3M        -0.0672
     14 C14        -3.6740  -16.5120   33.1090 C.ar      1 L3M        -0.0474
     15 C15        -4.2870  -17.7830   33.6740 C.3       1 L3M         0.0073
     16 C16        -3.2280  -18.7440   34.2920 C.3       1 L3M         0.0905
     17 C17        -3.7170  -20.2060   34.5940 C.3       1 L3M        -0.0062
     18 N18        -2.5790  -21.0300   35.0420 N.4       1 L3M         0.2497
     19 C19        -2.9030  -21.8490   36.2350 C.3       1 L3M         0.0930
     20 C20        -2.9790  -20.9800   37.4660 C.2       1 L3M         0.2271
     21 N21        -3.9530  -21.0670   38.4070 N.am      1 L3M        -0.2820
     22 C22        -4.0250  -20.2720   39.6260 C.3       1 L3M         0.0334
     23 C23        -5.2530  -20.5100   40.5720 C.3       1 L3M        -0.0265
     24 C24        -4.8500  -20.1540   42.0010 C.3       1 L3M        -0.0608
     25 C25        -5.7720  -21.9070   40.5960 C.3       1 L3M        -0.0608
     26 O26        -2.0680  -20.1130   37.6040 O.2       1 L3M        -0.3908
     27 C27        -1.7590  -22.8790   36.3780 C.3       1 L3M         0.1148
     28 O28        -0.5560  -22.1220   36.2150 O.3       1 L3M        -0.3837
     29 C29        -1.6870  -23.5610   37.7620 C.3       1 L3M        -0.0195
     30 C30        -0.5140  -24.5580   37.8150 C.3       1 L3M        -0.0532
     31 C31        -0.5380  -25.4940   39.0310 C.3       1 L3M        -0.0652
     32 N32        -2.0920  -18.7180   33.3510 N.am      1 L3M        -0.2763
     33 C33        -3.4920  -16.3180   31.7280 C.ar      1 L3M        -0.0591
     34 C34         2.2760  -18.2700   30.6810 C.ar      1 L3M        -0.0403
     35 C35         2.4890  -19.2010   31.7030 C.ar      1 L3M         0.0638
     36 N36         3.6970  -19.9170   31.7690 N.am      1 L3M        -0.1792
     37 C37         4.3130  -20.2050   33.1610 C.3       1 L3M         0.0552
     38 C38         4.7640  -18.9600   33.9360 C.3       1 L3M        -0.0327
     39 C39         5.4660  -17.9190   33.1210 C.3       1 L3M        -0.0633
     40 S40         4.4560  -20.4620   30.3600 S.o2      1 L3M         0.0594
     41 O41         3.4700  -20.6950   29.3640 O.2       1 L3M        -0.1500
     42 C42         5.2280  -21.7700   30.7410 C.3       1 L3M         0.0790
     43 O43         5.4360  -19.4990   29.9370 O.2       1 L3M        -0.1500
     44 C44         1.4900  -19.3720   32.6340 C.ar      1 L3M        -0.0324
     45 H1         -0.8198  -17.1555   31.5384 H         1 L3M         0.0465
     46 H2          0.7981  -17.0784   28.4926 H         1 L3M         0.0423
     47 H3          1.8301  -15.8989   29.3703 H         1 L3M         0.0423
     48 H4          0.0187  -14.6465   28.9018 H         1 L3M         0.0289
     49 H5         -0.3688  -15.2399   30.5524 H         1 L3M         0.0289
     50 H6         -1.8177  -16.9895   29.3280 H         1 L3M         0.0289
     51 H7         -1.6739  -15.8773   27.9248 H         1 L3M         0.0289
     52 H8         -3.7178  -15.3355   29.1480 H         1 L3M         0.0425
     53 H9         -2.5347  -14.0033   29.3769 H         1 L3M         0.0425
     54 H10        -1.9755  -13.3047   31.5881 H         1 L3M         0.0499
     55 H11        -2.2202  -13.5457   34.0522 H         1 L3M         0.0582
     56 H12        -3.2355  -15.6033   35.0324 H         1 L3M         0.0499
     57 H13        -4.8094  -18.3114   32.8629 H         1 L3M         0.0449
     58 H14        -5.0091  -17.5067   34.4564 H         1 L3M         0.0449
     59 H15        -2.9017  -18.3173   35.2519 H         1 L3M         0.0632
     60 H16        -4.1475  -20.6432   33.6810 H         1 L3M         0.0839
     61 H17        -4.4821  -20.1795   35.3839 H         1 L3M         0.0839
     62 H18        -1.8085  -20.4208   35.2682 H         1 L3M         0.2037
     63 H19        -2.3109  -21.6461   34.2906 H         1 L3M         0.2037
     64 H20        -3.8638  -22.3650   36.0918 H         1 L3M         0.1125
     65 H21        -4.6827  -21.7327   38.2507 H         1 L3M         0.1853
     66 H22        -4.0380  -19.2130   39.3289 H         1 L3M         0.0522
     67 H23        -3.1150  -20.4783   40.2086 H         1 L3M         0.0522
     68 H24        -6.0666  -19.8465   40.2437 H         1 L3M         0.0315
     69 H25        -5.7044  -20.3172   42.6743 H         1 L3M         0.0233
     70 H26        -4.5459  -19.0978   42.0439 H         1 L3M         0.0233
     71 H27        -4.0095  -20.7906   42.3144 H         1 L3M         0.0233
     72 H28        -6.0745  -22.2032   39.5808 H         1 L3M         0.0233
     73 H29        -6.6405  -21.9640   41.2687 H         1 L3M         0.0233
     74 H30        -4.9841  -22.5848   40.9562 H         1 L3M         0.0233
     75 H31        -1.8529  -23.6489   35.5980 H         1 L3M         0.0677
     76 H32        -0.5112  -21.4521   36.8872 H         1 L3M         0.2103
     77 H33        -2.6278  -24.0995   37.9490 H         1 L3M         0.0294
     78 H34        -1.5439  -22.7930   38.5364 H         1 L3M         0.0294
     79 H35         0.4248  -23.9852   37.8392 H         1 L3M         0.0264
     80 H36        -0.5440  -25.1746   36.9046 H         1 L3M         0.0264
     81 H37         0.3295  -26.1692   38.9911 H         1 L3M         0.0230
     82 H38        -1.4647  -26.0866   39.0194 H         1 L3M         0.0230
     83 H39        -0.4959  -24.8972   39.9540 H         1 L3M         0.0230
     84 H40        -2.3381  -18.5809   32.3915 H         1 L3M         0.1852
     85 H41        -3.8199  -17.1101   31.0646 H         1 L3M         0.0494
     86 H42         3.0541  -18.1221   29.9409 H         1 L3M         0.0451
     87 H43         5.1886  -20.8556   33.0196 H         1 L3M         0.0554
     88 H44         3.5597  -20.7304   33.7664 H         1 L3M         0.0554
     89 H45         5.4480  -19.2854   34.7337 H         1 L3M         0.0284
     90 H46         3.8724  -18.4969   34.3838 H         1 L3M         0.0284
     91 H47         5.7453  -17.0740   33.7675 H         1 L3M         0.0230
     92 H48         4.7965  -17.5647   32.3234 H         1 L3M         0.0230
     93 H49         6.3721  -18.3532   32.6733 H         1 L3M         0.0230
     94 H50         5.7412  -22.1650   29.8519 H         1 L3M         0.0488
     95 H51         4.5161  -22.5197   31.1167 H         1 L3M         0.0488
     96 H52         5.9690  -21.5442   31.5220 H         1 L3M         0.0488
     97 H53         1.6540  -20.0799   33.4384 H         1 L3M         0.0478
@<TRIPOS>BOND
     1    1    2 2  
     2    2    3 1  
     3    2   32 am 
     4    3    4 ar 
     5    3   44 ar 
     6    4    5 ar 
     7    5    6 1  
     8    5   34 ar 
     9    6    7 1  
    10    7    8 1  
    11    8    9 1  
    12    9   10 1  
    13   10   11 ar 
    14   10   33 ar 
    15   11   12 ar 
    16   12   13 ar 
    17   13   14 ar 
    18   14   15 1  
    19   14   33 ar 
    20   15   16 1  
    21   16   17 1  
    22   16   32 1  
    23   17   18 1  
    24   18   19 1  
    25   19   20 1  
    26   19   27 1  
    27   20   21 am 
    28   20   26 2  
    29   21   22 1  
    30   22   23 1  
    31   23   24 1  
    32   23   25 1  
    33   27   28 1  
    34   27   29 1  
    35   29   30 1  
    36   30   31 1  
    37   34   35 ar 
    38   35   36 1  
    39   35   44 ar 
    40   36   37 1  
    41   36   40 am 
    42   37   38 1  
    43   38   39 1  
    44   40   41 2  
    45   40   42 1  
    46   40   43 2  
    47    4   45 1  
    48    6   46 1  
    49    6   47 1  
    50    7   48 1  
    51    7   49 1  
    52    8   50 1  
    53    8   51 1  
    54    9   52 1  
    55    9   53 1  
    56   11   54 1  
    57   12   55 1  
    58   13   56 1  
    59   15   57 1  
    60   15   58 1  
    61   16   59 1  
    62   17   60 1  
    63   17   61 1  
    64   18   62 1  
    65   18   63 1  
    66   19   64 1  
    67   21   65 1  
    68   22   66 1  
    69   22   67 1  
    70   23   68 1  
    71   24   69 1  
    72   24   70 1  
    73   24   71 1  
    74   25   72 1  
    75   25   73 1  
    76   25   74 1  
    77   27   75 1  
    78   28   76 1  
    79   29   77 1  
    80   29   78 1  
    81   30   79 1  
    82   30   80 1  
    83   31   81 1  
    84   31   82 1  
    85   31   83 1  
    86   32   84 1  
    87   33   85 1  
    88   34   86 1  
    89   37   87 1  
    90   37   88 1  
    91   38   89 1  
    92   38   90 1  
    93   39   91 1  
    94   39   92 1  
    95   39   93 1  
    96   42   94 1  
    97   42   95 1  
    98   42   96 1  
    99   44   97 1  
@<TRIPOS>SUBSTRUCTURE
     1 L3M         1

