6nv9_ligand
  -I-interpret- 

 97 99  0  0  0  0  0  0  0  0999 V2000
   -0.3750  -19.1010   34.7730 O   0  0  0  0  0
   -0.7350  -18.8550   33.5970 C   0  0  0  0  0
    0.2830  -18.6860   32.5980 C   0  0  0  0  0
    0.0970  -17.7330   31.5700 C   0  0  0  0  0
    1.0930  -17.5190   30.5760 C   0  0  0  0  0
    0.9110  -16.5010   29.4220 C   0  0  0  0  0
   -0.2640  -15.5280   29.4960 C   0  0  0  0  0
   -1.6400  -15.9480   29.0220 C   0  0  0  0  0
   -2.7640  -15.0520   29.6170 C   0  0  0  0  0
   -2.9180  -15.1770   31.1410 C   0  0  0  0  0
   -2.4470  -14.1910   31.9970 C   0  0  0  0  0
   -2.5770  -14.3330   33.3980 C   0  0  0  0  0
   -3.1690  -15.4940   33.9560 C   0  0  0  0  0
   -3.6740  -16.5120   33.1090 C   0  0  0  0  0
   -4.2870  -17.7830   33.6740 C   0  0  0  0  0
   -3.2280  -18.7440   34.2920 C   0  0  0  0  0
   -3.7170  -20.2060   34.5940 C   0  0  0  0  0
   -2.5790  -21.0300   35.0420 N   0  3  0  0  0
   -2.9030  -21.8490   36.2350 C   0  0  0  0  0
   -2.9790  -20.9800   37.4660 C   0  0  0  0  0
   -3.9530  -21.0670   38.4070 N   0  0  0  0  0
   -4.0250  -20.2720   39.6260 C   0  0  0  0  0
   -5.2530  -20.5100   40.5720 C   0  0  0  0  0
   -4.8500  -20.1540   42.0010 C   0  0  0  0  0
   -5.7720  -21.9070   40.5960 C   0  0  0  0  0
   -2.0680  -20.1130   37.6040 O   0  0  0  0  0
   -1.7590  -22.8790   36.3780 C   0  0  0  0  0
   -0.5560  -22.1220   36.2150 O   0  0  0  0  0
   -1.6870  -23.5610   37.7620 C   0  0  0  0  0
   -0.5140  -24.5580   37.8150 C   0  0  0  0  0
   -0.5380  -25.4940   39.0310 C   0  0  0  0  0
   -2.0920  -18.7180   33.3510 N   0  0  0  0  0
   -3.4920  -16.3180   31.7280 C   0  0  0  0  0
    2.2760  -18.2700   30.6810 C   0  0  0  0  0
    2.4890  -19.2010   31.7030 C   0  0  0  0  0
    3.6970  -19.9170   31.7690 N   0  0  0  0  0
    4.3130  -20.2050   33.1610 C   0  0  0  0  0
    4.7640  -18.9600   33.9360 C   0  0  0  0  0
    5.4660  -17.9190   33.1210 C   0  0  0  0  0
    4.4560  -20.4620   30.3600 S   0  0  0  0  0
    3.4700  -20.6950   29.3640 O   0  0  0  0  0
    5.2280  -21.7700   30.7410 C   0  0  0  0  0
    5.4360  -19.4990   29.9370 O   0  0  0  0  0
    1.4900  -19.3720   32.6340 C   0  0  0  0  0
   -0.8249  -17.1523   31.5383 H   0  0  0  0  0
    0.7289  -17.1043   28.5327 H   0  0  0  0  0
    1.8036  -15.8760   29.4468 H   0  0  0  0  0
    0.0159  -14.7171   28.8235 H   0  0  0  0  0
   -0.3923  -15.3423   30.5624 H   0  0  0  0  0
   -1.8137  -16.9730   29.3495 H   0  0  0  0  0
   -1.6689  -15.8530   27.9365 H   0  0  0  0  0
   -3.7048  -15.3713   29.1686 H   0  0  0  0  0
   -2.5015  -14.0163   29.4014 H   0  0  0  0  0
   -1.9729  -13.2998   31.5859 H   0  0  0  0  0
   -2.2182  -13.5414   34.0558 H   0  0  0  0  0
   -3.2359  -15.6040   35.0384 H   0  0  0  0  0
   -4.7763  -18.3095   32.8545 H   0  0  0  0  0
   -4.9783  -17.4956   34.4662 H   0  0  0  0  0
   -2.9660  -18.3930   35.2901 H   0  0  0  0  0
   -4.1411  -20.6388   33.6880 H   0  0  0  0  0
   -4.4733  -20.1785   35.3784 H   0  0  0  0  0
   -1.8150  -20.4016   35.2906 H   0  0  0  0  0
   -2.3330  -21.6650   34.2826 H   0  0  0  0  0
   -3.8695  -22.3407   36.1244 H   0  0  0  0  0
   -4.6973  -21.7460   38.2475 H   0  0  0  0  0
   -4.1038  -19.2358   39.2970 H   0  0  0  0  0
   -3.1466  -20.5481   40.2094 H   0  0  0  0  0
   -6.0492  -19.8806   40.1745 H   0  0  0  0  0
   -4.0171  -20.7854   42.3102 H   0  0  0  0  0
   -4.5489  -19.1072   42.0421 H   0  0  0  0  0
   -5.6974  -20.3161   42.6672 H   0  0  0  0  0
   -6.0910  -22.1920   39.5935 H   0  0  0  0  0
   -4.9838  -22.5803   40.9330 H   0  0  0  0  0
   -6.6193  -21.9668   41.2790 H   0  0  0  0  0
   -1.9147  -23.6750   35.6498 H   0  0  0  0  0
    0.2016  -22.7065   36.2931 H   0  0  0  0  0
   -2.6174  -24.1007   37.9385 H   0  0  0  0  0
   -1.5358  -22.7971   38.5247 H   0  0  0  0  0
    0.4031  -23.9723   37.8782 H   0  0  0  0  0
   -0.5840  -25.1844   36.9257 H   0  0  0  0  0
   -0.4963  -24.9014   39.9449 H   0  0  0  0  0
   -1.4567  -26.0805   39.0183 H   0  0  0  0  0
    0.3220  -26.1625   38.9904 H   0  0  0  0  0
   -2.3431  -18.5782   32.3723 H   0  0  0  0  0
   -3.8217  -17.1145   31.0609 H   0  0  0  0  0
    3.0584  -18.1212   29.9368 H   0  0  0  0  0
    5.2023  -20.8126   32.9936 H   0  0  0  0  0
    3.5367  -20.6845   33.7572 H   0  0  0  0  0
    5.4762  -19.3010   34.6874 H   0  0  0  0  0
    3.8610  -18.4926   34.3287 H   0  0  0  0  0
    6.3635  -18.3505   32.6779 H   0  0  0  0  0
    4.8016  -17.5688   32.3310 H   0  0  0  0  0
    5.7423  -17.0823   33.7627 H   0  0  0  0  0
    4.5233  -22.5073   31.1256 H   0  0  0  0  0
    5.7252  -22.1677   29.8563 H   0  0  0  0  0
    5.9709  -21.5423   31.5054 H   0  0  0  0  0
    1.6549  -20.0839   33.4428 H   0  0  0  0  0
  1  2  2  0  0  0
  2  3  1  0  0  0
  2 32  1  0  0  0
  3  4  4  0  0  0
  3 44  4  0  0  0
  4  5  4  0  0  0
  5  6  1  0  0  0
  5 34  4  0  0  0
  6  7  1  0  0  0
  7  8  1  0  0  0
  8  9  1  0  0  0
  9 10  1  0  0  0
 10 11  4  0  0  0
 10 33  4  0  0  0
 11 12  4  0  0  0
 12 13  4  0  0  0
 13 14  4  0  0  0
 14 15  1  0  0  0
 14 33  4  0  0  0
 15 16  1  0  0  0
 16 17  1  0  0  0
 16 32  1  0  0  0
 17 18  1  0  0  0
 18 19  1  0  0  0
 19 20  1  0  0  0
 19 27  1  0  0  0
 20 21  1  0  0  0
 20 26  2  0  0  0
 21 22  1  0  0  0
 22 23  1  0  0  0
 23 24  1  0  0  0
 23 25  1  0  0  0
 27 28  1  0  0  0
 27 29  1  0  0  0
 29 30  1  0  0  0
 30 31  1  0  0  0
 34 35  4  0  0  0
 35 36  1  0  0  0
 35 44  4  0  0  0
 36 37  1  0  0  0
 36 40  1  0  0  0
 37 38  1  0  0  0
 38 39  1  0  0  0
 40 41  2  0  0  0
 40 42  1  0  0  0
 40 43  2  0  0  0
  4 45  1  0  0  0
  6 46  1  0  0  0
  6 47  1  0  0  0
  7 48  1  0  0  0
  7 49  1  0  0  0
  8 50  1  0  0  0
  8 51  1  0  0  0
  9 52  1  0  0  0
  9 53  1  0  0  0
 11 54  1  0  0  0
 12 55  1  0  0  0
 13 56  1  0  0  0
 15 57  1  0  0  0
 15 58  1  0  0  0
 16 59  1  0  0  0
 17 60  1  0  0  0
 17 61  1  0  0  0
 18 62  1  0  0  0
 18 63  1  0  0  0
 19 64  1  0  0  0
 21 65  1  0  0  0
 22 66  1  0  0  0
 22 67  1  0  0  0
 23 68  1  0  0  0
 24 69  1  0  0  0
 24 70  1  0  0  0
 24 71  1  0  0  0
 25 72  1  0  0  0
 25 73  1  0  0  0
 25 74  1  0  0  0
 27 75  1  0  0  0
 28 76  1  0  0  0
 29 77  1  0  0  0
 29 78  1  0  0  0
 30 79  1  0  0  0
 30 80  1  0  0  0
 31 81  1  0  0  0
 31 82  1  0  0  0
 31 83  1  0  0  0
 32 84  1  0  0  0
 33 85  1  0  0  0
 34 86  1  0  0  0
 37 87  1  0  0  0
 37 88  1  0  0  0
 38 89  1  0  0  0
 38 90  1  0  0  0
 39 91  1  0  0  0
 39 92  1  0  0  0
 39 93  1  0  0  0
 42 94  1  0  0  0
 42 95  1  0  0  0
 42 96  1  0  0  0
 44 97  1  0  0  0
M  END
$$$$
