1a4k_ligand
  -I-interpret- 

 54 57  0  0  0  0  0  0  0  0999 V2000
   15.6040    7.0570   -2.2840 C   0  0  0  0  0
   15.9760    5.7400   -1.5940 C   0  0  0  0  0
   15.4720    4.6940   -1.9840 O   0  0  0  0  0
   16.8250    5.6200   -0.5830 N   0  0  0  0  0
   17.8010    6.4300    0.1030 C   0  0  0  0  0
   17.4160    7.6830    0.6260 C   0  0  0  0  0
   18.3390    8.4880    1.2940 C   0  0  0  0  0
   19.6990    8.0850    1.4790 C   0  0  0  0  0
   20.0900    6.8050    0.9420 C   0  0  0  0  0
   19.1510    5.9910    0.2640 C   0  0  0  0  0
   20.6510    9.0020    2.2090 N   0  0  0  0  0
   20.3460    9.7660    3.3110 C   0  0  0  0  0
   21.5050   10.6030    3.7940 C   0  0  0  0  0
   22.6620   10.2210    2.8080 C   0  0  0  0  0
   21.9530    9.2230    1.8830 C   0  0  0  0  0
   19.2670    9.8250    3.8880 O   0  0  0  0  0
   22.5660    8.7090    0.9450 O   0  0  0  0  0
   21.3110   12.2290    3.7910 C   0  0  0  0  0
   21.0230   12.7550    2.2910 C   0  0  0  0  0
   22.2250   12.3000    1.3290 C   0  0  0  0  0
   23.7240   12.4530    3.4150 C   0  0  0  0  0
   22.6700   12.8440    4.2460 C   0  0  0  0  0
   23.3440   11.4890    2.1610 C   0  0  0  0  0
   24.4370   10.9940    1.2860 N   0  0  0  0  0
   25.7120   10.8320    1.5630 C   0  0  0  0  0
   26.2400   11.0850    2.6430 O   0  0  0  0  0
   26.3270   10.3200    0.4320 O   0  0  0  0  0
   27.7520   10.0260    0.4470 C   0  0  0  0  0
   28.2080    9.2280   -0.7690 C   0  0  0  0  0
   29.1480    8.4040   -0.6340 O   0  0  0  0  0
   27.6260    9.4150   -1.8690 O   0  0  0  0  0
   15.8755    7.0027   -3.3382 H   0  0  0  0  0
   14.5307    7.2233   -2.1920 H   0  0  0  0  0
   16.1421    7.8783   -1.8107 H   0  0  0  0  0
   16.7730    4.6876   -0.1728 H   0  0  0  0  0
   16.3879    8.0250    0.5069 H   0  0  0  0  0
   18.0145    9.4518    1.6863 H   0  0  0  0  0
   21.1177    6.4612    1.0592 H   0  0  0  0  0
   19.4592    5.0254   -0.1368 H   0  0  0  0  0
   21.6697   10.3870    4.8496 H   0  0  0  0  0
   23.5473    9.7639    3.2502 H   0  0  0  0  0
   20.4811   12.5081    4.4402 H   0  0  0  0  0
   20.0860   12.3313    1.9295 H   0  0  0  0  0
   20.9495   13.8425    2.2936 H   0  0  0  0  0
   21.8263   11.6513    0.5490 H   0  0  0  0  0
   22.6837   13.1878    0.8936 H   0  0  0  0  0
   24.1205   13.3704    2.9800 H   0  0  0  0  0
   24.4040   11.8767    4.0424 H   0  0  0  0  0
   22.8828   12.4929    5.2557 H   0  0  0  0  0
   22.5852   13.9298    4.2022 H   0  0  0  0  0
   24.1596   10.7446    0.3367 H   0  0  0  0  0
   27.9582    9.4268    1.3339 H   0  0  0  0  0
   28.2872   10.9756    0.4409 H   0  0  0  0  0
   26.9426   10.0802   -1.7591 H   0  0  0  0  0
  1  2  1  0  0  0
  2  4  1  0  0  0
  2  3  2  0  0  0
  4  5  1  0  0  0
  5 10  4  0  0  0
  5  6  4  0  0  0
  6  7  4  0  0  0
  7  8  4  0  0  0
  8 11  1  0  0  0
  8  9  4  0  0  0
  9 10  4  0  0  0
 11 15  1  0  0  0
 11 12  1  0  0  0
 12 16  2  0  0  0
 12 13  1  0  0  0
 13 18  1  0  0  0
 13 14  1  0  0  0
 14 23  1  0  0  0
 14 15  1  0  0  0
 15 17  2  0  0  0
 23 21  1  0  0  0
 23 24  1  0  0  0
 23 20  1  0  0  0
 20 19  1  0  0  0
 19 18  1  0  0  0
 18 22  1  0  0  0
 22 21  1  0  0  0
 24 25  1  0  0  0
 25 27  1  0  0  0
 25 26  2  0  0  0
 27 28  1  0  0  0
 28 29  1  0  0  0
 29 31  1  0  0  0
 29 30  2  0  0  0
  1 32  1  0  0  0
  1 33  1  0  0  0
  1 34  1  0  0  0
  4 35  1  0  0  0
  6 36  1  0  0  0
  7 37  1  0  0  0
  9 38  1  0  0  0
 10 39  1  0  0  0
 13 40  1  0  0  0
 14 41  1  0  0  0
 18 42  1  0  0  0
 19 43  1  0  0  0
 19 44  1  0  0  0
 20 45  1  0  0  0
 20 46  1  0  0  0
 21 47  1  0  0  0
 21 48  1  0  0  0
 22 49  1  0  0  0
 22 50  1  0  0  0
 24 51  1  0  0  0
 28 52  1  0  0  0
 28 53  1  0  0  0
 31 54  1  0  0  0
M  END
$$$$
