3bgq_ligand
  -I-interpret- 

 44 47  0  0  0  0  0  0  0  0999 V2000
  -21.5640   39.2750   -0.8230 C   0  0  0  0  0
  -16.2310   34.6350    0.9100 N   0  0  0  0  0
  -20.6710   39.3180    1.6790 C   0  0  0  0  0
  -19.7840   38.8080    2.7170 C   0  0  0  0  0
  -18.8380   37.7400    2.4120 C   0  0  0  0  0
  -16.3130   34.7450   -0.4160 C   0  0  0  0  0
  -15.6650   34.1930   -1.5590 C   0  0  0  0  0
  -17.1340   35.6220   -3.0730 C   0  0  0  0  0
  -18.7260   36.7960   -4.5320 C   0  0  0  0  0
  -20.6350   38.7610    0.3000 C   0  0  0  0  0
  -19.6690   37.6890    0.0450 C   0  0  0  0  0
  -16.0860   34.6410   -2.8710 C   0  0  0  0  0
  -19.4950   39.1950   -4.7490 C   0  0  0  0  0
  -17.0520   35.4020    1.6060 N   0  0  0  0  0
  -22.8460   39.1240   -0.4020 F   0  0  0  0  0
  -21.4520   38.5530   -1.9700 F   0  0  0  0  0
  -21.2250   40.5650   -1.0910 F   0  0  0  0  0
  -18.7630   37.1610    1.0590 C   0  0  0  0  0
  -17.7620   36.1100    0.6880 C   0  0  0  0  0
  -17.5350   36.0030   -4.3410 N   0  0  0  0  0
  -18.3410   38.2660   -4.4010 C   0  0  0  0  0
  -20.1000   38.8660   -6.1070 C   0  0  0  0  0
  -20.5320   37.4090   -6.2070 C   0  0  0  0  0
  -19.3900   36.4560   -5.8840 C   0  0  0  0  0
  -17.7050   36.1100   -1.9040 N   0  0  0  0  0
  -17.3310   35.7150   -0.5950 N   0  0  0  0  0
  -21.3709   40.1191    1.9165 H   0  0  0  0  0
  -19.8275   39.2253    3.7230 H   0  0  0  0  0
  -18.1784   37.3656    3.1948 H   0  0  0  0  0
  -14.8727   33.4525   -1.4490 H   0  0  0  0  0
  -19.4745   36.5714   -3.7721 H   0  0  0  0  0
  -19.6251   37.2628   -0.9573 H   0  0  0  0  0
  -15.5917   34.2208   -3.7469 H   0  0  0  0  0
  -19.1135   40.2155   -4.7833 H   0  0  0  0  0
  -20.2699   39.0754   -3.9919 H   0  0  0  0  0
  -16.9826   35.7203   -5.1505 H   0  0  0  0  0
  -17.5237   38.4658   -5.0939 H   0  0  0  0  0
  -18.0566   38.4513   -3.3652 H   0  0  0  0  0
  -19.3420   39.0479   -6.8689 H   0  0  0  0  0
  -20.9819   39.4914   -6.2457 H   0  0  0  0  0
  -20.8580   37.2182   -7.2295 H   0  0  0  0  0
  -21.3330   37.2395   -5.4874 H   0  0  0  0  0
  -19.7934   35.4452   -5.8235 H   0  0  0  0  0
  -18.6375   36.5443   -6.6676 H   0  0  0  0  0
 10  1  1  0  0  0
  1 15  1  0  0  0
  1 16  1  0  0  0
  1 17  1  0  0  0
  2  6  4  0  0  0
 14  2  4  0  0  0
  4  3  4  0  0  0
 10  3  4  0  0  0
  5  4  4  0  0  0
 18  5  4  0  0  0
  6  7  4  0  0  0
  6 26  4  0  0  0
  7 12  4  0  0  0
 12  8  4  0  0  0
  8 20  1  0  0  0
  8 25  4  0  0  0
 20  9  1  0  0  0
  9 21  1  0  0  0
  9 24  1  0  0  0
 11 10  4  0  0  0
 18 11  4  0  0  0
 21 13  1  0  0  0
 13 22  1  0  0  0
 19 14  4  0  0  0
 18 19  1  0  0  0
 19 26  4  0  0  0
 22 23  1  0  0  0
 23 24  1  0  0  0
 25 26  4  0  0  0
  3 27  1  0  0  0
  4 28  1  0  0  0
  5 29  1  0  0  0
  7 30  1  0  0  0
  9 31  1  0  0  0
 11 32  1  0  0  0
 12 33  1  0  0  0
 13 34  1  0  0  0
 13 35  1  0  0  0
 20 36  1  0  0  0
 21 37  1  0  0  0
 21 38  1  0  0  0
 22 39  1  0  0  0
 22 40  1  0  0  0
 23 41  1  0  0  0
 23 42  1  0  0  0
 24 43  1  0  0  0
 24 44  1  0  0  0
M  END
$$$$
