### 
### Created by X-TOOL on Mon Sep 10 21:12:56 2018
### 

@<TRIPOS>MOLECULE
3bgq_ligand
   44    47     1     0     0
SMALL
GAST_HUCK


@<TRIPOS>ATOM
      1 C1        -21.5640   39.2750   -0.8230 C.3       1 VX2         0.3770
      2 N2        -16.2310   34.6350    0.9100 N.2       1 VX2        -0.2642
      3 C3        -20.6710   39.3180    1.6790 C.ar      1 VX2        -0.0316
      4 C4        -19.7840   38.8080    2.7170 C.ar      1 VX2        -0.0315
      5 C5        -18.8380   37.7400    2.4120 C.ar      1 VX2        -0.0218
      6 C9        -16.3130   34.7450   -0.4160 C.2       1 VX2         0.1796
      7 C10       -15.6650   34.1930   -1.5590 C.2       1 VX2         0.0103
      8 C12       -17.1340   35.6220   -3.0730 C.2       1 VX2         0.1515
      9 C13       -18.7260   36.7960   -4.5320 C.3       1 VX2         0.0380
     10 C2        -20.6350   38.7610    0.3000 C.ar      1 VX2         0.0488
     11 C7        -19.6690   37.6890    0.0450 C.ar      1 VX2        -0.0194
     12 C11       -16.0860   34.6410   -2.8710 C.2       1 VX2         0.0041
     13 C15       -19.4950   39.1950   -4.7490 C.3       1 VX2        -0.0510
     14 N1        -17.0520   35.4020    1.6060 N.2       1 VX2        -0.2546
     15 F1        -22.8460   39.1240   -0.4020 F         1 VX2        -0.2199
     16 F2        -21.4520   38.5530   -1.9700 F         1 VX2        -0.2199
     17 F3        -21.2250   40.5650   -1.0910 F         1 VX2        -0.2199
     18 C6        -18.7630   37.1610    1.0590 C.ar      1 VX2         0.0600
     19 C8        -17.7620   36.1100    0.6880 C.2       1 VX2         0.1956
     20 N3        -17.5350   36.0030   -4.3410 N.pl3     1 VX2        -0.3001
     21 C14       -18.3410   38.2660   -4.4010 C.3       1 VX2        -0.0304
     22 C16       -20.1000   38.8660   -6.1070 C.3       1 VX2        -0.0529
     23 C17       -20.5320   37.4090   -6.2070 C.3       1 VX2        -0.0510
     24 C18       -19.3900   36.4560   -5.8840 C.3       1 VX2        -0.0304
     25 N4        -17.7050   36.1100   -1.9040 N.2       1 VX2        -0.1384
     26 N5        -17.3310   35.7150   -0.5950 N.pl3     1 VX2        -0.1136
     27 H1        -21.3670   40.1147    1.9152 H         1 VX2         0.0851
     28 H2        -19.8273   39.2230    3.7175 H         1 VX2         0.0698
     29 H3        -18.1820   37.3677    3.1905 H         1 VX2         0.0864
     30 H4        -14.8735   33.4532   -1.4491 H         1 VX2         0.0766
     31 H5        -19.4446   36.5555   -3.7347 H         1 VX2         0.0550
     32 H6        -19.6253   37.2652   -0.9518 H         1 VX2         0.0861
     33 H7        -15.5922   34.2212   -3.7461 H         1 VX2         0.0726
     34 H8        -19.1248   40.2307   -4.7663 H         1 VX2         0.0266
     35 H9        -20.2748   39.0971   -3.9794 H         1 VX2         0.0266
     36 H10       -16.9772   35.7175   -5.1584 H         1 VX2         0.1798
     37 H11       -17.5012   38.4743   -5.0803 H         1 VX2         0.0287
     38 H12       -18.0304   38.4599   -3.3637 H         1 VX2         0.0287
     39 H13       -19.3508   39.0675   -6.8868 H         1 VX2         0.0265
     40 H14       -20.9787   39.5078   -6.2681 H         1 VX2         0.0265
     41 H15       -20.8818   37.2110   -7.2309 H         1 VX2         0.0266
     42 H16       -21.3542   37.2322   -5.4980 H         1 VX2         0.0266
     43 H17       -19.7840   35.4300   -5.8394 H         1 VX2         0.0287
     44 H18       -18.6334   36.5240   -6.6796 H         1 VX2         0.0287
@<TRIPOS>BOND
     1   10    1 1  
     2    1   15 1  
     3    1   16 1  
     4    1   17 1  
     5    2    6 2  
     6   14    2 1  
     7    4    3 ar 
     8   10    3 ar 
     9    5    4 ar 
    10   18    5 ar 
    11    6    7 1  
    12    6   26 1  
    13    7   12 2  
    14   12    8 1  
    15    8   20 1  
    16    8   25 2  
    17   20    9 1  
    18    9   21 1  
    19    9   24 1  
    20   11   10 ar 
    21   18   11 ar 
    22   21   13 1  
    23   13   22 1  
    24   19   14 2  
    25   18   19 1  
    26   19   26 1  
    27   22   23 1  
    28   23   24 1  
    29   25   26 1  
    30    3   27 1  
    31    4   28 1  
    32    5   29 1  
    33    7   30 1  
    34    9   31 1  
    35   11   32 1  
    36   12   33 1  
    37   13   34 1  
    38   13   35 1  
    39   20   36 1  
    40   21   37 1  
    41   21   38 1  
    42   22   39 1  
    43   22   40 1  
    44   23   41 1  
    45   23   42 1  
    46   24   43 1  
    47   24   44 1  
@<TRIPOS>SUBSTRUCTURE
     1 VX2         1

