5c1w_ligand
  -I-interpret- 

 20 21  0  0  0  0  0  0  0  0999 V2000
    4.3810   12.1860   43.4710 C   0  0  0  0  0
    4.0840   13.7120   41.7190 C   0  0  0  0  0
    3.4160   14.5380   42.5510 N   0  0  0  0  0
    3.4380   15.0590   39.5100 C   0  0  0  0  0
    3.4570   12.6250   45.8760 C   0  0  0  0  0
    2.3900   15.2590   44.8090 Cl  0  0  0  0  0
    3.2610   14.1230   43.8290 C   0  0  0  0  0
    3.7110   12.9470   44.4260 C   0  0  0  0  0
    4.5530   12.5150   42.1750 N   0  0  0  0  0
    5.1060   10.6260   43.7360 Cl  0  0  0  0  0
    4.3270   14.0860   40.2810 C   0  0  0  0  0
    4.7750   15.5320   40.0870 C   0  0  0  0  0
    2.3956   15.3772   39.4925 H   0  0  0  0  0
    2.8939   15.0986   38.5663 H   0  0  0  0  0
    2.8772   11.7047   45.9463 H   0  0  0  0  0
    4.4093   12.4962   46.3905 H   0  0  0  0  0
    2.9015   13.4420   46.3364 H   0  0  0  0  0
    4.6661   13.0791   40.0376 H   0  0  0  0  0
    5.1616   16.3561   40.6865 H   0  0  0  0  0
    5.6602   16.0773   39.7597 H   0  0  0  0  0
  1  8  4  0  0  0
  9  1  4  0  0  0
  1 10  1  0  0  0
  2  3  4  0  0  0
  2  9  4  0  0  0
  2 11  1  0  0  0
  3  7  4  0  0  0
 11  4  1  0  0  0
  4 12  1  0  0  0
  8  5  1  0  0  0
  7  6  1  0  0  0
  7  8  4  0  0  0
 11 12  1  0  0  0
  4 13  1  0  0  0
  4 14  1  0  0  0
  5 15  1  0  0  0
  5 16  1  0  0  0
  5 17  1  0  0  0
 11 18  1  0  0  0
 12 19  1  0  0  0
 12 20  1  0  0  0
M  END
$$$$
