### 
### Created by X-TOOL on Mon Sep 10 21:13:24 2018
### 

@<TRIPOS>MOLECULE
5c1w_ligand
   20    21     1     0     0
SMALL
GAST_HUCK


@<TRIPOS>ATOM
      1 C2          4.3810   12.1860   43.4710 C.ar      1 4XS         0.1258
      2 C3          4.0840   13.7120   41.7190 C.ar      1 4XS         0.0932
      3 N4          3.4160   14.5380   42.5510 N.ar      1 4XS        -0.2613
      4 C7          3.4380   15.0590   39.5100 C.3       1 4XS        -0.0334
      5 C9          3.4570   12.6250   45.8760 C.3       1 4XS        -0.0239
      6 CL          2.3900   15.2590   44.8090 Cl        1 4XS        -0.0370
      7 C           3.2610   14.1230   43.8290 C.ar      1 4XS         0.1258
      8 C1          3.7110   12.9470   44.4260 C.ar      1 4XS         0.0312
      9 N           4.5530   12.5150   42.1750 N.ar      1 4XS        -0.2613
     10 CL5         5.1060   10.6260   43.7360 Cl        1 4XS        -0.0370
     11 C6          4.3270   14.0860   40.2810 C.3       1 4XS         0.0231
     12 C8          4.7750   15.5320   40.0870 C.3       1 4XS        -0.0334
     13 H1          2.4934   15.4094   39.9515 H         1 4XS         0.0297
     14 H2          3.3160   14.9493   38.4223 H         1 4XS         0.0297
     15 H3          3.9042   11.6498   46.1188 H         1 4XS         0.0390
     16 H4          2.3730   12.5870   46.0587 H         1 4XS         0.0390
     17 H5          3.9085   13.4031   46.5090 H         1 4XS         0.0390
     18 H6          4.7989   13.2499   39.7441 H         1 4XS         0.0521
     19 H7          4.7913   16.2225   40.9431 H         1 4XS         0.0297
     20 H8          5.6140   15.7624   39.4140 H         1 4XS         0.0297
@<TRIPOS>BOND
     1    1    8 ar 
     2    9    1 ar 
     3    1   10 1  
     4    2    3 ar 
     5    2    9 ar 
     6    2   11 1  
     7    3    7 ar 
     8   11    4 1  
     9    4   12 1  
    10    8    5 1  
    11    7    6 1  
    12    7    8 ar 
    13   11   12 1  
    14    4   13 1  
    15    4   14 1  
    16    5   15 1  
    17    5   16 1  
    18    5   17 1  
    19   11   18 1  
    20   12   19 1  
    21   12   20 1  
@<TRIPOS>SUBSTRUCTURE
     1 4XS         1

