3spf_ligand
  -I-interpret- 

 76 79  0  0  0  0  0  0  0  0999 V2000
   23.7300    6.8970  -29.7360 C   0  0  0  0  0
   30.7630    9.1460  -24.7380 O   0  0  0  0  0
   27.4610    5.1040  -24.6060 O   0  0  0  0  0
   25.3160    6.0970  -23.0680 O   0  0  0  0  0
   27.8130   14.7200  -17.1220 Cl  0  0  0  0  0
   30.2610   14.8080  -24.3950 C   0  0  0  0  0
   28.9150   14.4950  -24.1990 C   0  0  0  0  0
   31.2540   13.8970  -24.0230 C   0  0  0  0  0
   28.5570   13.2740  -23.6280 C   0  0  0  0  0
   30.8900   12.6740  -23.4550 C   0  0  0  0  0
   27.0500   12.7290  -18.7640 C   0  0  0  0  0
   29.2730   13.6360  -19.0800 C   0  0  0  0  0
   27.2610   11.8320  -19.8140 C   0  0  0  0  0
   29.4860   12.7350  -20.1220 C   0  0  0  0  0
   28.4980    9.6460  -21.3520 C   0  0  0  0  0
   27.0100    6.4500  -24.7530 C   0  0  0  0  0
   28.8970    8.7250  -27.4880 C   0  0  0  0  0
   29.2910   10.1170  -26.9830 C   0  0  0  0  0
   27.4470    6.9640  -22.3050 C   0  0  0  0  0
   27.3850    8.5090  -27.3460 C   0  0  0  0  0
   25.4380    8.5460  -30.0970 C   0  0  0  0  0
   24.4000    8.3150  -27.9090 C   0  0  0  0  0
   26.6840    9.2460  -29.5480 C   0  0  0  0  0
   25.2220    9.5770  -27.5920 C   0  0  0  0  0
   28.7750    7.5870  -22.7600 C   0  0  0  0  0
   28.9510   10.2600  -25.5570 N   0  0  0  0  0
   29.7170    9.7720  -24.5660 C   0  0  0  0  0
   28.0540   13.6340  -18.4050 C   0  0  0  0  0
   28.4780   11.8450  -20.5140 C   0  0  0  0  0
   29.5440   12.3580  -23.2590 C   0  0  0  0  0
   28.6980   10.9590  -21.4960 C   0  0  0  0  0
   29.2030   11.1790  -22.7160 C   0  0  0  0  0
   29.2620    9.9990  -23.3300 C   0  0  0  0  0
   26.4050    6.9490  -23.4360 C   0  0  0  0  0
   24.8590    7.6090  -29.1210 N   0  3  0  0  0
   26.6090    9.5100  -28.0970 N   0  3  0  0  0
   28.8450    9.0480  -22.4910 N   0  0  0  0  0
   22.9718    7.6173  -30.0432 H   0  0  0  0  0
   24.0818    6.3441  -30.6070 H   0  0  0  0  0
   23.3020    6.2033  -29.0123 H   0  0  0  0  0
   27.8377    4.8015  -25.4356 H   0  0  0  0  0
   24.9340    6.4060  -22.2433 H   0  0  0  0  0
   30.5383   15.7642  -24.8388 H   0  0  0  0  0
   28.1426   15.2058  -24.4926 H   0  0  0  0  0
   32.3057   14.1396  -24.1753 H   0  0  0  0  0
   27.5055   13.0346  -23.4696 H   0  0  0  0  0
   31.6616   11.9616  -23.1628 H   0  0  0  0  0
   26.1029   12.7235  -18.2245 H   0  0  0  0  0
   30.0560   14.3385  -18.7947 H   0  0  0  0  0
   26.4811   11.1222  -20.0897 H   0  0  0  0  0
   30.4466   12.7229  -20.6369 H   0  0  0  0  0
   28.1175    9.1505  -20.4588 H   0  0  0  0  0
   26.2503    6.4897  -25.5336 H   0  0  0  0  0
   27.8555    7.0835  -25.0212 H   0  0  0  0  0
   29.4189    7.9731  -26.8961 H   0  0  0  0  0
   29.1692    8.6402  -28.5400 H   0  0  0  0  0
   28.7480   10.8694  -27.5550 H   0  0  0  0  0
   30.3658   10.2490  -27.1070 H   0  0  0  0  0
   27.0521    7.5619  -21.4836 H   0  0  0  0  0
   27.6380    5.9346  -22.0018 H   0  0  0  0  0
   27.1263    8.6001  -26.2911 H   0  0  0  0  0
   27.1437    7.5234  -27.7441 H   0  0  0  0  0
   25.7265    7.9809  -30.9833 H   0  0  0  0  0
   24.6913    9.3068  -30.3245 H   0  0  0  0  0
   23.3697    8.6270  -28.0797 H   0  0  0  0  0
   24.5092    7.6306  -27.0677 H   0  0  0  0  0
   26.7743   10.2067  -30.0549 H   0  0  0  0  0
   27.5362    8.5888  -29.7212 H   0  0  0  0  0
   25.2697    9.6765  -26.5076 H   0  0  0  0  0
   24.7333   10.4207  -28.0794 H   0  0  0  0  0
   28.8623    7.4402  -23.8365 H   0  0  0  0  0
   29.5789    7.1052  -22.2035 H   0  0  0  0  0
   28.0930   10.7530  -25.3096 H   0  0  0  0  0
   26.0561    7.9708  -23.5856 H   0  0  0  0  0
   25.5821    6.9441  -28.8464 H   0  0  0  0  0
   27.0183   10.4324  -27.9487 H   0  0  0  0  0
 35  1  1  0  0  0
 27  2  2  0  0  0
 16  3  1  0  0  0
 34  4  1  0  0  0
 28  5  1  0  0  0
  7  6  4  0  0  0
  8  6  4  0  0  0
  9  7  4  0  0  0
 10  8  4  0  0  0
 30  9  4  0  0  0
 30 10  4  0  0  0
 13 11  4  0  0  0
 11 28  4  0  0  0
 14 12  4  0  0  0
 12 28  4  0  0  0
 29 13  4  0  0  0
 29 14  4  0  0  0
 31 15  4  0  0  0
 15 37  4  0  0  0
 34 16  1  0  0  0
 18 17  1  0  0  0
 17 20  1  0  0  0
 26 18  1  0  0  0
 25 19  1  0  0  0
 19 34  1  0  0  0
 20 36  1  0  0  0
 23 21  1  0  0  0
 21 35  1  0  0  0
 24 22  1  0  0  0
 22 35  1  0  0  0
 36 23  1  0  0  0
 36 24  1  0  0  0
 37 25  1  0  0  0
 27 26  1  0  0  0
 33 27  1  0  0  0
 31 29  1  0  0  0
 32 30  1  0  0  0
 32 31  4  0  0  0
 32 33  4  0  0  0
 33 37  4  0  0  0
  1 38  1  0  0  0
  1 39  1  0  0  0
  1 40  1  0  0  0
  3 41  1  0  0  0
  4 42  1  0  0  0
  6 43  1  0  0  0
  7 44  1  0  0  0
  8 45  1  0  0  0
  9 46  1  0  0  0
 10 47  1  0  0  0
 11 48  1  0  0  0
 12 49  1  0  0  0
 13 50  1  0  0  0
 14 51  1  0  0  0
 15 52  1  0  0  0
 16 53  1  0  0  0
 16 54  1  0  0  0
 17 55  1  0  0  0
 17 56  1  0  0  0
 18 57  1  0  0  0
 18 58  1  0  0  0
 19 59  1  0  0  0
 19 60  1  0  0  0
 20 61  1  0  0  0
 20 62  1  0  0  0
 21 63  1  0  0  0
 21 64  1  0  0  0
 22 65  1  0  0  0
 22 66  1  0  0  0
 23 67  1  0  0  0
 23 68  1  0  0  0
 24 69  1  0  0  0
 24 70  1  0  0  0
 25 71  1  0  0  0
 25 72  1  0  0  0
 26 73  1  0  0  0
 34 74  1  0  0  0
 35 75  1  0  0  0
 36 76  1  0  0  0
M  END
$$$$
