### 
### Created by X-TOOL on Mon Sep 10 21:13:09 2018
### 

@<TRIPOS>MOLECULE
3spf_ligand
   76    79     1     0     0
SMALL
GAST_HUCK


@<TRIPOS>ATOM
      1 CAA        23.7300    6.8970  -29.7360 C.3       1 B50        -0.0427
      2 OAB        30.7630    9.1460  -24.7380 O.2       1 B50        -0.3907
      3 OAC        27.4610    5.1040  -24.6060 O.3       1 B50        -0.3925
      4 OAD        25.3160    6.0970  -23.0680 O.3       1 B50        -0.3894
      5 CLAE       27.8130   14.7200  -17.1220 Cl        1 B50        -0.0749
      6 CAF        30.2610   14.8080  -24.3950 C.ar      1 B50        -0.0651
      7 CAG        28.9150   14.4950  -24.1990 C.ar      1 B50        -0.0650
      8 CAH        31.2540   13.8970  -24.0230 C.ar      1 B50        -0.0650
      9 CAI        28.5570   13.2740  -23.6280 C.ar      1 B50        -0.0599
     10 CAJ        30.8900   12.6740  -23.4550 C.ar      1 B50        -0.0599
     11 CAK        27.0500   12.7290  -18.7640 C.ar      1 B50        -0.0528
     12 CAL        29.2730   13.6360  -19.0800 C.ar      1 B50        -0.0528
     13 CAM        27.2610   11.8320  -19.8140 C.ar      1 B50        -0.0617
     14 CAN        29.4860   12.7350  -20.1220 C.ar      1 B50        -0.0617
     15 CAO        28.4980    9.6460  -21.3520 C.2       1 B50         0.0428
     16 CAP        27.0100    6.4500  -24.7530 C.3       1 B50         0.0702
     17 CAQ        28.8970    8.7250  -27.4880 C.3       1 B50         0.0075
     18 CAR        29.2910   10.1170  -26.9830 C.3       1 B50         0.0347
     19 CAS        27.4470    6.9640  -22.3050 C.3       1 B50         0.0040
     20 CAT        27.3850    8.5090  -27.3460 C.3       1 B50        -0.0296
     21 CAU        25.4380    8.5460  -30.0970 C.3       1 B50         0.0092
     22 CAV        24.4000    8.3150  -27.9090 C.3       1 B50         0.0092
     23 CAW        26.6840    9.2460  -29.5480 C.3       1 B50         0.0094
     24 CAX        25.2220    9.5770  -27.5920 C.3       1 B50         0.0094
     25 CAY        28.7750    7.5870  -22.7600 C.3       1 B50         0.0598
     26 NAZ        28.9510   10.2600  -25.5570 N.am      1 B50        -0.2867
     27 CBA        29.7170    9.7720  -24.5660 C.2       1 B50         0.2207
     28 CBB        28.0540   13.6340  -18.4050 C.ar      1 B50         0.0353
     29 CBC        28.4780   11.8450  -20.5140 C.ar      1 B50        -0.0372
     30 CBD        29.5440   12.3580  -23.2590 C.ar      1 B50        -0.0329
     31 CBE        28.6980   10.9590  -21.4960 C.2       1 B50        -0.0130
     32 CBF        29.2030   11.1790  -22.7160 C.2       1 B50        -0.0014
     33 CBG        29.2620    9.9990  -23.3300 C.2       1 B50         0.1425
     34 CBH        26.4050    6.9490  -23.4360 C.3       1 B50         0.0809
     35 NBI        24.8590    7.6090  -29.1210 N.4       1 B50         0.2405
     36 NBJ        26.6090    9.5100  -28.0970 N.4       1 B50         0.2427
     37 NBK        28.8450    9.0480  -22.4910 N.pl3     1 B50        -0.2557
     38 H1         24.0756    6.3721  -30.6388 H         1 B50         0.0778
     39 H2         22.9462    7.6188  -30.0090 H         1 B50         0.0778
     40 H3         23.3233    6.1671  -29.0206 H         1 B50         0.0778
     41 H4         26.7269    4.5493  -24.3693 H         1 B50         0.2095
     42 H5         25.6337    5.2086  -22.9578 H         1 B50         0.2099
     43 H6         30.5368   15.7589  -24.8363 H         1 B50         0.0590
     44 H7         28.1468   15.2019  -24.4910 H         1 B50         0.0609
     45 H8         32.2999   14.1383  -24.1744 H         1 B50         0.0609
     46 H9         27.5113   13.0359  -23.4705 H         1 B50         0.0591
     47 H10        31.6573   11.9656  -23.1645 H         1 B50         0.0591
     48 H11        26.1081   12.7236  -18.2275 H         1 B50         0.0610
     49 H12        30.0517   14.3347  -18.7962 H         1 B50         0.0610
     50 H13        26.4853   11.1261  -20.0882 H         1 B50         0.0576
     51 H14        30.4413   12.7230  -20.6341 H         1 B50         0.0576
     52 H15        28.1178    9.1510  -20.4596 H         1 B50         0.0957
     53 H16        26.2466    6.4937  -25.5438 H         1 B50         0.0583
     54 H17        27.8606    7.0908  -25.0286 H         1 B50         0.0583
     55 H18        29.4282    7.9627  -26.8992 H         1 B50         0.0336
     56 H19        29.1779    8.6315  -28.5474 H         1 B50         0.0336
     57 H20        28.7504   10.8796  -27.5629 H         1 B50         0.0520
     58 H21        30.3743   10.2569  -27.1133 H         1 B50         0.0520
     59 H22        27.0495    7.5492  -21.4627 H         1 B50         0.0319
     60 H23        27.6324    5.9302  -21.9782 H         1 B50         0.0319
     61 H24        27.1155    8.5770  -26.2817 H         1 B50         0.0815
     62 H25        27.1327    7.5076  -27.7249 H         1 B50         0.0815
     63 H26        25.7141    7.9886  -31.0042 H         1 B50         0.0868
     64 H27        24.6848    9.3070  -30.3491 H         1 B50         0.0868
     65 H28        23.3499    8.6092  -28.0529 H         1 B50         0.0868
     66 H29        24.4741    7.6262  -27.0546 H         1 B50         0.0868
     67 H30        26.8061   10.2052  -30.0723 H         1 B50         0.0868
     68 H31        27.5584    8.6077  -29.7428 H         1 B50         0.0868
     69 H32        25.2534    9.7088  -26.5004 H         1 B50         0.0868
     70 H33        24.7240   10.4433  -28.0518 H         1 B50         0.0868
     71 H34        28.8887    7.4224  -23.8417 H         1 B50         0.0629
     72 H35        29.5982    7.0908  -22.2251 H         1 B50         0.0629
     73 H36        28.1099   10.7434  -25.3144 H         1 B50         0.1836
     74 H37        26.0299    7.9724  -23.5840 H         1 B50         0.0617
     75 H38        25.5650    6.9399  -28.8568 H         1 B50         0.2035
     76 H39        27.0307   10.4110  -27.9346 H         1 B50         0.2038
@<TRIPOS>BOND
     1   35    1 1  
     2   27    2 2  
     3   16    3 1  
     4   34    4 1  
     5   28    5 1  
     6    7    6 ar 
     7    8    6 ar 
     8    9    7 ar 
     9   10    8 ar 
    10   30    9 ar 
    11   30   10 ar 
    12   13   11 ar 
    13   11   28 ar 
    14   14   12 ar 
    15   12   28 ar 
    16   29   13 ar 
    17   29   14 ar 
    18   31   15 2  
    19   15   37 1  
    20   34   16 1  
    21   18   17 1  
    22   17   20 1  
    23   26   18 1  
    24   25   19 1  
    25   19   34 1  
    26   20   36 1  
    27   23   21 1  
    28   21   35 1  
    29   24   22 1  
    30   22   35 1  
    31   36   23 1  
    32   36   24 1  
    33   37   25 1  
    34   27   26 am 
    35   33   27 1  
    36   31   29 1  
    37   32   30 1  
    38   32   31 1  
    39   32   33 2  
    40   33   37 1  
    41    1   38 1  
    42    1   39 1  
    43    1   40 1  
    44    3   41 1  
    45    4   42 1  
    46    6   43 1  
    47    7   44 1  
    48    8   45 1  
    49    9   46 1  
    50   10   47 1  
    51   11   48 1  
    52   12   49 1  
    53   13   50 1  
    54   14   51 1  
    55   15   52 1  
    56   16   53 1  
    57   16   54 1  
    58   17   55 1  
    59   17   56 1  
    60   18   57 1  
    61   18   58 1  
    62   19   59 1  
    63   19   60 1  
    64   20   61 1  
    65   20   62 1  
    66   21   63 1  
    67   21   64 1  
    68   22   65 1  
    69   22   66 1  
    70   23   67 1  
    71   23   68 1  
    72   24   69 1  
    73   24   70 1  
    74   25   71 1  
    75   25   72 1  
    76   26   73 1  
    77   34   74 1  
    78   35   75 1  
    79   36   76 1  
@<TRIPOS>SUBSTRUCTURE
     1 B50         1

