#	Name:			2r23_ligand
#	Creating user name:	wangrx
#	Creation time:		Thu Sep 13 11:05:14 2018

#	Modifying user name:	wangrx
#	Modification time:	Thu Sep 13 11:06:44 2018

@<TRIPOS>MOLECULE
2r23_ligand
   63    64     2     0     3
SMALL
GAST_HUCK


@<TRIPOS>ATOM
      1 OA1       -10.5600    0.9600   65.8320 O.co2     1 KO1_214    -0.5426 
      2 C1         -9.4270    0.4110   65.8990 C.2       1 KO1_214     0.1068 
      3 O1B        -9.2980   -0.8120   65.8230 O.co2     1 KO1_214    -0.5426 
      4 C2         -8.1610    1.2820   66.0630 C.3       1 KO1_214     0.2477 
      5 O6         -8.6350    2.7320   66.3730 O.3       1 KO1_214    -0.3362 
      6 C6         -7.4320    3.6300   66.5430 C.3       1 KO1_214     0.1171 
      7 C7         -8.0470    4.9540   67.0870 C.3       1 KO1_214     0.1067 
      8 C8         -8.7620    4.7800   68.4430 C.3       1 KO1_214     0.0727 
      9 O8         -7.6250    4.7070   69.3320 O.3       1 KO1_214    -0.3924 
     10 O7         -6.9590    5.8660   67.0790 O.3       1 KO1_214    -0.3869 
     11 C5         -6.6960    3.7300   65.2050 C.3       1 KO1_214     0.1120 
     12 O5         -7.5970    4.2250   64.1980 O.3       1 KO1_214    -0.3865 
     13 C4         -6.2040    2.3150   64.7990 C.3       1 KO1_214     0.1139 
     14 O4         -5.5670    2.4040   63.5460 O.3       1 KO1_214    -0.3865 
     15 C3         -7.3360    1.2440   64.7350 C.3       1 KO1_214     0.1429 
     16 O3         -8.3210    1.4950   63.7530 O.3       1 KO1_214    -0.3844 
     17 O2         -7.1930    0.8930   67.0990 O.3       1 KO1_214    -0.3388 
     18 C1         -8.8120    2.1590   71.5690 C.2       2 KDA215      0.1043 
     19 O1A        -9.9390    2.7190   71.4830 O.co2     2 KDA215     -0.5426 
     20 O1B        -7.8310    2.5990   72.2570 O.co2     2 KDA215     -0.5426 
     21 C2         -8.6560    0.8490   70.7320 C.3       2 KDA215      0.2225 
     22 C3         -8.4000    1.3200   69.2660 C.3       2 KDA215      0.0360 
     23 C4         -7.6610    0.3070   68.3550 C.3       2 KDA215      0.0937 
     24 C5         -6.3840   -0.3310   68.9610 C.3       2 KDA215      0.1098 
     25 O5         -5.2800    0.6230   69.0050 O.3       2 KDA215     -0.3866 
     26 C6         -6.7650   -0.9110   70.3580 C.3       2 KDA215      0.1170 
     27 O6         -7.5020    0.0820   71.1840 O.3       2 KDA215     -0.3380 
     28 C7         -5.5480   -1.5340   71.0950 C.3       2 KDA215      0.1067 
     29 O7         -5.0340   -2.6770   70.3750 O.3       2 KDA215     -0.3869 
     30 C8         -5.8320   -1.9250   72.5760 C.3       2 KDA215      0.0727 
     31 O8         -5.8720   -3.3630   72.7650 O.3       2 KDA215     -0.3924 
     32 O2         -9.7820   -0.0450   70.8930 O.3       2 KDA215     -0.3323 
     33 C9        -10.3260   -1.3250   70.9280 C.3       2 KDA215      0.0783 
     34 C10       -10.7300   -2.0860   69.8070 C.2       2 KDA215     -0.0639 
     35 C11       -11.2750   -3.3770   69.8990 C.2       2 KDA215     -0.1153 
     36 H1         -6.7372    3.2171   67.2892 H         1 KO1_214     0.0649 
     37 H2         -8.8053    5.3128   66.3755 H         1 KO1_214     0.0643 
     38 H3         -9.3598    3.8571   68.4716 H         1 KO1_214     0.0584 
     39 H4         -9.4055    5.6411   68.6764 H         1 KO1_214     0.0584 
     40 H5         -7.9283    4.5966   70.2255 H         1 KO1_214     0.2095 
     41 H6         -6.5853    5.9054   66.2065 H         1 KO1_214     0.2100 
     42 H7         -5.8373    4.4107   65.3018 H         1 KO1_214     0.0647 
     43 H8         -7.1402    4.2871   63.3673 H         1 KO1_214     0.2100 
     44 H9         -5.4700    1.9831   65.5481 H         1 KO1_214     0.0647 
     45 H10        -5.2604    1.5436   63.2848 H         1 KO1_214     0.2100 
     46 H11        -6.8826    0.2547   64.5747 H         1 KO1_214     0.0667 
     47 H12        -8.9727    0.8041   63.7744 H         1 KO1_214     0.2100 
     48 H13        -7.7982    2.2399   69.3066 H         2 KDA215      0.0336 
     49 H14        -9.3749    1.5396   68.8062 H         2 KDA215      0.0336 
     50 H15        -8.3785   -0.4957   68.1294 H         2 KDA215      0.0623 
     51 H16        -6.0707   -1.1664   68.3176 H         2 KDA215      0.0646 
     52 H17        -4.5142    0.2041   69.3800 H         2 KDA215      0.2100 
     53 H18        -7.4657   -1.7381   70.1709 H         2 KDA215      0.0649 
     54 H19        -4.7592   -0.7675   71.1100 H         2 KDA215      0.0643 
     55 H20        -4.2920   -3.0395   70.8446 H         2 KDA215      0.2100 
     56 H21        -6.8023   -1.5014   72.8745 H         2 KDA215      0.0584 
     57 H22        -5.0379   -1.5061   73.2116 H         2 KDA215      0.0584 
     58 H23        -6.0470   -3.5576   73.6782 H         2 KDA215      0.2095 
     59 H24       -11.2239   -1.2399   71.5577 H         2 KDA215      0.0740 
     60 H25        -9.5753   -1.9437   71.4414 H         2 KDA215      0.0740 
     61 H26       -10.6120   -1.6468   68.8175 H         2 KDA215      0.0695 
     62 H27       -11.5665   -3.9106   68.9956 H         2 KDA215      0.0290 
     63 H28       -11.4061   -3.8445   70.8738 H         2 KDA215      0.0290 
@<TRIPOS>BOND
     1    2    1 ar   
     2    2    3 ar   
     3    4    2 1    
     4    4    5 1    
     5    4   15 1    
     6   17    4 1    
     7    5    6 1    
     8    6    7 1    
     9    6   11 1    
    10    7    8 1    
    11    7   10 1    
    12    8    9 1    
    13   11   12 1    
    14   11   13 1    
    15   13   14 1    
    16   13   15 1    
    17   15   16 1    
    18   18   19 ar   
    19   18   20 ar   
    20   21   18 1    
    21   21   22 1    
    22   21   27 1    
    23   32   21 1    
    24   22   23 1    
    25   23   24 1    
    26   24   25 1    
    27   26   24 1    
    28   27   26 1    
    29   26   28 1    
    30   28   29 1    
    31   28   30 1    
    32   30   31 1    
    33   33   32 1    
    34   34   33 1    
    35   35   34 2    
    36   17   23 1    
    37    6   36 1    
    38    7   37 1    
    39    8   38 1    
    40    8   39 1    
    41    9   40 1    
    42   10   41 1    
    43   11   42 1    
    44   12   43 1    
    45   13   44 1    
    46   14   45 1    
    47   15   46 1    
    48   16   47 1    
    49   22   48 1    
    50   22   49 1    
    51   23   50 1    
    52   24   51 1    
    53   25   52 1    
    54   26   53 1    
    55   28   54 1    
    56   29   55 1    
    57   30   56 1    
    58   30   57 1    
    59   31   58 1    
    60   33   59 1    
    61   33   60 1    
    62   34   61 1    
    63   35   62 1    
    64   35   63 1    
@<TRIPOS>SUBSTRUCTURE
     1 KO1_214    17 GROUP             4 B     ****    1 ROOT KO1 B 214
     2 KDA215     35 GROUP             4 B     ****    1 **** KDA B 215
