2r23_ligand
  -I-interpret- 

 65 66  0  0  0  0  0  0  0  0999 V2000
  -10.5600    0.9600   65.8320 O   0  0  0  0  0
   -9.4270    0.4110   65.8990 C   0  0  0  0  0
   -9.2980   -0.8120   65.8230 O   0  0  0  0  0
   -8.1610    1.2820   66.0630 C   0  0  0  0  0
   -8.6350    2.7320   66.3730 O   0  0  0  0  0
   -7.4320    3.6300   66.5430 C   0  0  0  0  0
   -8.0470    4.9540   67.0870 C   0  0  0  0  0
   -8.7620    4.7800   68.4430 C   0  0  0  0  0
   -7.6250    4.7070   69.3320 O   0  0  0  0  0
   -6.9590    5.8660   67.0790 O   0  0  0  0  0
   -6.6960    3.7300   65.2050 C   0  0  0  0  0
   -7.5970    4.2250   64.1980 O   0  0  0  0  0
   -6.2040    2.3150   64.7990 C   0  0  0  0  0
   -5.5670    2.4040   63.5460 O   0  0  0  0  0
   -7.3360    1.2440   64.7350 C   0  0  0  0  0
   -8.3210    1.4950   63.7530 O   0  0  0  0  0
   -7.1930    0.8930   67.0990 O   0  0  0  0  0
   -8.8120    2.1590   71.5690 C   0  0  0  0  0
   -9.9390    2.7190   71.4830 O   0  0  0  0  0
   -7.8310    2.5990   72.2570 O   0  0  0  0  0
   -8.6560    0.8490   70.7320 C   0  0  0  0  0
   -8.4000    1.3200   69.2660 C   0  0  0  0  0
   -7.6610    0.3070   68.3550 C   0  0  0  0  0
   -6.3840   -0.3310   68.9610 C   0  0  0  0  0
   -5.2800    0.6230   69.0050 O   0  0  0  0  0
   -6.7650   -0.9110   70.3580 C   0  0  0  0  0
   -7.5020    0.0820   71.1840 O   0  0  0  0  0
   -5.5480   -1.5340   71.0950 C   0  0  0  0  0
   -5.0340   -2.6770   70.3750 O   0  0  0  0  0
   -5.8320   -1.9250   72.5760 C   0  0  0  0  0
   -5.8720   -3.3630   72.7650 O   0  0  0  0  0
   -9.7820   -0.0450   70.8930 O   0  0  0  0  0
  -10.3260   -1.3250   70.9280 C   0  0  0  0  0
  -10.7300   -2.0860   69.8070 C   0  0  0  0  0
  -11.2750   -3.3770   69.8990 C   0  0  0  0  0
  -10.4584    1.9114   65.9101 H   0  0  0  0  0
   -6.6633    3.2827   67.2333 H   0  0  0  0  0
   -8.8651    5.3295   66.4724 H   0  0  0  0  0
   -9.4221    3.9139   68.4912 H   0  0  0  0  0
   -9.4647    5.5782   68.6823 H   0  0  0  0  0
   -7.9325    4.5955   70.2345 H   0  0  0  0  0
   -6.5821    5.9050   66.1969 H   0  0  0  0  0
   -5.8485    4.4090   65.2984 H   0  0  0  0  0
   -7.9031    5.1003   64.4464 H   0  0  0  0  0
   -5.5176    1.9801   65.5767 H   0  0  0  0  0
   -5.2576    1.5341   63.2831 H   0  0  0  0  0
   -6.8121    0.3105   64.5297 H   0  0  0  0  0
   -8.9790    0.7963   63.7755 H   0  0  0  0  0
   -7.0842    2.0028   72.1651 H   0  0  0  0  0
   -7.7606    2.2003   69.3315 H   0  0  0  0  0
   -9.3803    1.4810   68.8175 H   0  0  0  0  0
   -8.4391   -0.4434   68.2150 H   0  0  0  0  0
   -6.0187   -1.1440   68.3335 H   0  0  0  0  0
   -4.5068    0.1987   69.3841 H   0  0  0  0  0
   -7.4540   -1.7375   70.1841 H   0  0  0  0  0
   -4.7965   -0.7450   71.1221 H   0  0  0  0  0
   -4.2843   -3.0425   70.8504 H   0  0  0  0  0
   -6.8049   -1.5192   72.8534 H   0  0  0  0  0
   -5.0278   -1.5240   73.1929 H   0  0  0  0  0
   -6.0489   -3.5585   73.6881 H   0  0  0  0  0
  -11.2745   -1.1526   71.4367 H   0  0  0  0  0
   -9.4923   -1.9135   71.3109 H   0  0  0  0  0
  -10.6119   -1.6464   68.8166 H   0  0  0  0  0
  -11.4062   -3.8449   70.8747 H   0  0  0  0  0
  -11.5668   -3.9111   68.9947 H   0  0  0  0  0
  2  1  1  0  0  0
  2  3  2  0  0  0
  4  2  1  0  0  0
  4  5  1  0  0  0
  4 15  1  0  0  0
 17  4  1  0  0  0
  5  6  1  0  0  0
  6  7  1  0  0  0
  6 11  1  0  0  0
  7  8  1  0  0  0
  7 10  1  0  0  0
  8  9  1  0  0  0
 11 12  1  0  0  0
 11 13  1  0  0  0
 13 14  1  0  0  0
 13 15  1  0  0  0
 15 16  1  0  0  0
 18 19  2  0  0  0
 18 20  1  0  0  0
 21 18  1  0  0  0
 21 22  1  0  0  0
 21 27  1  0  0  0
 32 21  1  0  0  0
 22 23  1  0  0  0
 23 24  1  0  0  0
 24 25  1  0  0  0
 26 24  1  0  0  0
 27 26  1  0  0  0
 26 28  1  0  0  0
 28 29  1  0  0  0
 28 30  1  0  0  0
 30 31  1  0  0  0
 33 32  1  0  0  0
 34 33  1  0  0  0
 35 34  2  0  0  0
 17 23  1  0  0  0
  1 36  1  0  0  0
  6 37  1  0  0  0
  7 38  1  0  0  0
  8 39  1  0  0  0
  8 40  1  0  0  0
  9 41  1  0  0  0
 10 42  1  0  0  0
 11 43  1  0  0  0
 12 44  1  0  0  0
 13 45  1  0  0  0
 14 46  1  0  0  0
 15 47  1  0  0  0
 16 48  1  0  0  0
 20 49  1  0  0  0
 22 50  1  0  0  0
 22 51  1  0  0  0
 23 52  1  0  0  0
 24 53  1  0  0  0
 25 54  1  0  0  0
 26 55  1  0  0  0
 28 56  1  0  0  0
 29 57  1  0  0  0
 30 58  1  0  0  0
 30 59  1  0  0  0
 31 60  1  0  0  0
 33 61  1  0  0  0
 33 62  1  0  0  0
 34 63  1  0  0  0
 35 64  1  0  0  0
 35 65  1  0  0  0
M  END
$$$$
