4lhm_ligand
  -I-interpret- 

 32 33  0  0  0  0  0  0  0  0999 V2000
   32.9900  -10.8640   -8.6320 O   0  0  0  0  0
   32.9660  -10.2520   -7.3310 C   0  0  0  0  0
   31.8090  -10.8030   -6.5100 C   0  0  0  0  0
   31.9630  -12.2020   -6.3000 O   0  0  0  0  0
   31.6600  -10.1990   -5.1140 C   0  0  0  0  0
   30.4780   -9.3600   -5.1250 N   0  0  0  0  0
   30.2680   -8.5110   -4.2310 N   0  0  0  0  0
   30.0440   -7.6330   -3.3090 N   0  0  0  0  0
   31.3520  -11.3590   -4.1890 C   0  0  0  0  0
   31.2070  -12.5390   -5.1410 C   0  0  0  0  0
   31.7390  -13.7460   -4.5210 N   0  0  0  0  0
   30.8500  -14.7400   -4.0500 C   0  0  0  0  0
   29.5910  -14.6290   -4.1750 O   0  0  0  0  0
   31.3620  -15.8320   -3.4700 N   0  0  0  0  0
   32.6830  -16.0230   -3.3310 C   0  0  0  0  0
   33.0990  -17.0590   -2.7810 O   0  0  0  0  0
   33.6330  -14.9920   -3.8050 C   0  0  0  0  0
   35.1220  -15.1580   -3.6670 C   0  0  0  0  0
   33.0830  -13.8690   -4.3990 C   0  0  0  0  0
   33.7236  -10.5078   -9.1385 H   0  0  0  0  0
   32.8400   -9.1755   -7.4462 H   0  0  0  0  0
   33.9025  -10.4700   -6.8176 H   0  0  0  0  0
   30.9316  -10.5459   -7.1035 H   0  0  0  0  0
   32.5462   -9.6392   -4.8152 H   0  0  0  0  0
   30.4569  -11.1912   -3.5900 H   0  0  0  0  0
   32.1293  -11.5167   -3.4413 H   0  0  0  0  0
   30.1636  -12.7319   -5.3902 H   0  0  0  0  0
   30.7237  -16.5465   -3.1202 H   0  0  0  0  0
   35.5805  -15.1490   -4.6558 H   0  0  0  0  0
   35.5240  -14.3385   -3.0712 H   0  0  0  0  0
   35.3365  -16.1063   -3.1743 H   0  0  0  0  0
   33.7351  -13.0787   -4.7709 H   0  0  0  0  0
  1  2  1  0  0  0
  2  3  1  0  0  0
  3  4  1  0  0  0
  3  5  1  0  0  0
  4 10  1  0  0  0
  5  6  1  0  0  0
  5  9  1  0  0  0
  6  7  2  0  0  0
  7  8  3  0  0  0
  9 10  1  0  0  0
 10 11  1  0  0  0
 11 12  1  0  0  0
 11 19  1  0  0  0
 12 13  2  0  0  0
 12 14  1  0  0  0
 14 15  1  0  0  0
 15 16  2  0  0  0
 15 17  1  0  0  0
 17 18  1  0  0  0
 17 19  2  0  0  0
  1 20  1  0  0  0
  2 21  1  0  0  0
  2 22  1  0  0  0
  3 23  1  0  0  0
  5 24  1  0  0  0
  9 25  1  0  0  0
  9 26  1  0  0  0
 10 27  1  0  0  0
 14 28  1  0  0  0
 18 29  1  0  0  0
 18 30  1  0  0  0
 18 31  1  0  0  0
 19 32  1  0  0  0
M  END
$$$$
