### 
### Created by X-TOOL on Mon Sep 10 21:13:16 2018
### 

@<TRIPOS>MOLECULE
4lhm_ligand
   32    33     1     0     0
SMALL
GAST_HUCK


@<TRIPOS>ATOM
      1 O5'        32.9900  -10.8640   -8.6320 O.3       1 AZZ        -0.3923
      2 C5'        32.9660  -10.2520   -7.3310 C.3       1 AZZ         0.0758
      3 C4'        31.8090  -10.8030   -6.5100 C.3       1 AZZ         0.1430
      4 O4'        31.9630  -12.2020   -6.3000 O.3       1 AZZ        -0.3368
      5 C3'        31.6600  -10.1990   -5.1140 C.3       1 AZZ         0.2514
      6 N3'        30.4780   -9.3600   -5.1250 N.2       1 AZZ         0.1721
      7 N4'        30.2680   -8.5110   -4.2310 N.1       1 AZZ         0.1296
      8 N5'        30.0440   -7.6330   -3.3090 N.1       1 AZZ         0.2334
      9 C2'        31.3520  -11.3590   -4.1890 C.3       1 AZZ         0.0633
     10 C1'        31.2070  -12.5390   -5.1410 C.3       1 AZZ         0.1785
     11 N1         31.7390  -13.7460   -4.5210 N.am      1 AZZ        -0.1735
     12 C2         30.8500  -14.7400   -4.0500 C.2       1 AZZ         0.3265
     13 O2         29.5910  -14.6290   -4.1750 O.2       1 AZZ        -0.3843
     14 N3         31.3620  -15.8320   -3.4700 N.am      1 AZZ        -0.1859
     15 C4         32.6830  -16.0230   -3.3310 C.2       1 AZZ         0.1930
     16 O4         33.0990  -17.0590   -2.7810 O.2       1 AZZ        -0.4079
     17 C5         33.6330  -14.9920   -3.8050 C.2       1 AZZ         0.0225
     18 C5A        35.1220  -15.1580   -3.6670 C.3       1 AZZ        -0.0437
     19 C6         33.0830  -13.8690   -4.3990 C.2       1 AZZ         0.0524
     20 H          33.0958  -11.8033   -8.5370 H         1 AZZ         0.2095
     21 H          32.8456   -9.1644   -7.4436 H         1 AZZ         0.0585
     22 H          33.9125  -10.4644   -6.8124 H         1 AZZ         0.0585
     23 H          30.8831  -10.6160   -7.0737 H         1 AZZ         0.0676
     24 H          32.5577   -9.6437   -4.8046 H         1 AZZ         0.1024
     25 H          30.4184  -11.1834   -3.6345 H         1 AZZ         0.0373
     26 H          32.1749  -11.5252   -3.4783 H         1 AZZ         0.0373
     27 H          30.1503  -12.6941   -5.4041 H         1 AZZ         0.0960
     28 H          30.7362  -16.5325   -3.1270 H         1 AZZ         0.2259
     29 H          35.6295  -14.2757   -4.0841 H         1 AZZ         0.0296
     30 H          35.4428  -16.0576   -4.2127 H         1 AZZ         0.0296
     31 H          35.3824  -15.2620   -2.6033 H         1 AZZ         0.0296
     32 H          33.7345  -13.0795   -4.7706 H         1 AZZ         0.1011
@<TRIPOS>BOND
     1    1    2 1  
     2    2    3 1  
     3    3    4 1  
     4    3    5 1  
     5    4   10 1  
     6    5    6 1  
     7    5    9 1  
     8    6    7 2  
     9    7    8 3  
    10    9   10 1  
    11   10   11 1  
    12   11   12 am 
    13   11   19 1  
    14   12   13 2  
    15   12   14 am 
    16   14   15 am 
    17   15   16 2  
    18   15   17 1  
    19   17   18 1  
    20   17   19 2  
    21    1   20 1  
    22    2   21 1  
    23    2   22 1  
    24    3   23 1  
    25    5   24 1  
    26    9   25 1  
    27    9   26 1  
    28   10   27 1  
    29   14   28 1  
    30   18   29 1  
    31   18   30 1  
    32   18   31 1  
    33   19   32 1  
@<TRIPOS>SUBSTRUCTURE
     1 AZZ         1

