1v2w_ligand
  -I-interpret- 

 54 55  0  0  0  0  0  0  0  0999 V2000
   -2.2300   19.0600   17.5820 N   0  0  0  0  0
   -3.4070   18.3790   18.1940 C   0  0  0  0  0
   -2.9030   17.3950   19.2540 C   0  0  0  0  0
   -4.5280   19.3290   18.8380 C   0  0  0  0  0
   -5.7260   19.1350   18.5120 O   0  0  0  0  0
   -4.1320   20.3700   19.7610 O   0  0  0  0  0
   -2.7570   20.6800   20.2080 C   0  0  0  0  0
   -2.1280   16.1710   18.7720 C   0  0  0  0  0
   -1.0760   15.6750   19.5830 C   0  0  0  0  0
   -0.3200   14.5390   19.1890 C   0  0  0  0  0
   -0.6200   13.8860   17.9650 C   0  0  0  0  0
   -1.6940   14.3480   17.0800 C   0  0  0  0  0
   -2.4400   15.5120   17.5220 C   0  0  0  0  0
   -1.9750   13.6840   15.8740 C   0  0  0  0  0
   -2.6570   14.1910   14.8700 N   0  0  0  0  0
   -1.5940   12.4440   15.5960 N   0  0  0  0  0
   -2.2880   19.9770   16.6060 C   0  0  0  0  0
   -1.0030   20.7140   16.2760 C   0  0  0  0  0
   -0.9320   21.2560   14.8920 N   0  0  0  0  0
   -3.3110   20.2340   15.9770 O   0  0  0  0  0
    2.9430   25.4260   18.6360 C   0  0  0  0  0
    2.0660   24.7860   17.6200 C   0  0  0  0  0
    2.5960   23.9820   16.5510 C   0  0  0  0  0
    1.7010   23.3830   15.5960 C   0  0  0  0  0
    0.2840   23.6190   15.7510 C   0  0  0  0  0
   -0.2270   24.4190   16.8130 C   0  0  0  0  0
    0.6630   24.9930   17.7360 C   0  0  0  0  0
   -0.8860   22.9300   14.6560 S   0  0  0  0  0
   -0.5540   23.1530   13.1090 O   0  0  0  0  0
   -2.3250   23.3780   15.1000 O   0  0  0  0  0
   -1.3066   18.8078   17.9343 H   0  0  0  0  0
   -3.9159   17.8862   17.3656 H   0  0  0  0  0
   -3.7976   17.0028   19.7377 H   0  0  0  0  0
   -2.2030   17.9608   19.8688 H   0  0  0  0  0
   -2.3321   19.8073   20.7040 H   0  0  0  0  0
   -2.1459   20.9420   19.3443 H   0  0  0  0  0
   -2.7830   21.5184   20.9041 H   0  0  0  0  0
   -0.8437   16.1736   20.5240 H   0  0  0  0  0
    0.4863   14.1706   19.8232 H   0  0  0  0  0
   -0.0340   13.0142   17.6739 H   0  0  0  0  0
   -3.2495   15.8965   16.9015 H   0  0  0  0  0
   -3.0285   15.1389   14.9328 H   0  0  0  0  0
   -1.8418   12.0230   14.7006 H   0  0  0  0  0
   -1.0533   11.9117   16.2777 H   0  0  0  0  0
   -0.1908   19.9940   16.3758 H   0  0  0  0  0
   -0.9443   21.5663   16.9529 H   0  0  0  0  0
   -0.9112   20.6232   14.0923 H   0  0  0  0  0
    3.5048   24.6566   19.1656 H   0  0  0  0  0
    3.6351   26.1064   18.1399 H   0  0  0  0  0
    2.3297   25.9826   19.3447 H   0  0  0  0  0
    3.6715   23.8270   16.4646 H   0  0  0  0  0
    2.0812   22.7691   14.7795 H   0  0  0  0  0
   -1.3001   24.5845   16.9088 H   0  0  0  0  0
    0.2743   25.6041   18.5506 H   0  0  0  0  0
  1  2  1  0  0  0
 17  1  1  0  0  0
  2  3  1  0  0  0
  2  4  1  0  0  0
  3  8  1  0  0  0
  4  5  2  0  0  0
  4  6  1  0  0  0
  6  7  1  0  0  0
  8  9  4  0  0  0
  8 13  4  0  0  0
  9 10  4  0  0  0
 10 11  4  0  0  0
 12 11  4  0  0  0
 13 12  4  0  0  0
 12 14  1  0  0  0
 14 15  2  0  0  0
 14 16  1  0  0  0
 18 17  1  0  0  0
 17 20  2  0  0  0
 19 18  1  0  0  0
 28 19  1  0  0  0
 22 21  1  0  0  0
 23 22  4  0  0  0
 22 27  4  0  0  0
 24 23  4  0  0  0
 25 24  4  0  0  0
 25 26  4  0  0  0
 25 28  1  0  0  0
 26 27  4  0  0  0
 28 29  2  0  0  0
 28 30  2  0  0  0
  1 31  1  0  0  0
  2 32  1  0  0  0
  3 33  1  0  0  0
  3 34  1  0  0  0
  7 35  1  0  0  0
  7 36  1  0  0  0
  7 37  1  0  0  0
  9 38  1  0  0  0
 10 39  1  0  0  0
 11 40  1  0  0  0
 13 41  1  0  0  0
 15 42  1  0  0  0
 16 43  1  0  0  0
 16 44  1  0  0  0
 18 45  1  0  0  0
 18 46  1  0  0  0
 19 47  1  0  0  0
 21 48  1  0  0  0
 21 49  1  0  0  0
 21 50  1  0  0  0
 23 51  1  0  0  0
 24 52  1  0  0  0
 26 53  1  0  0  0
 27 54  1  0  0  0
M  END
$$$$
