### 
### Created by X-TOOL on Mon Sep 10 21:12:51 2018
### 

@<TRIPOS>MOLECULE
1v2w_ligand
   55    56     1     0     0
SMALL
GAST_HUCK


@<TRIPOS>ATOM
      1 N12        -2.2300   19.0600   17.5820 N.am      1 ANH        -0.2612
      2 C13        -3.4070   18.3790   18.1940 C.3       1 ANH         0.1517
      3 C30        -2.9030   17.3950   19.2540 C.3       1 ANH         0.0228
      4 C14        -4.5280   19.3290   18.8380 C.2       1 ANH         0.2614
      5 O17        -5.7260   19.1350   18.5120 O.2       1 ANH        -0.3676
      6 O15        -4.1320   20.3700   19.7610 O.3       1 ANH        -0.2783
      7 C16        -2.7570   20.6800   20.2080 C.3       1 ANH         0.0658
      8 C21        -2.1280   16.1710   18.7720 C.ar      1 ANH        -0.0385
      9 C22        -1.0760   15.6750   19.5830 C.ar      1 ANH        -0.0601
     10 C23        -0.3200   14.5390   19.1890 C.ar      1 ANH        -0.0686
     11 C24        -0.6200   13.8860   17.9650 C.ar      1 ANH        -0.0635
     12 C25        -1.6940   14.3480   17.0800 C.ar      1 ANH         0.0192
     13 C26        -2.4400   15.5120   17.5220 C.ar      1 ANH        -0.0549
     14 C27        -1.9750   13.6840   15.8740 C.cat     1 ANH         0.2340
     15 N28        -2.6570   14.1910   14.8700 N.pl3     1 ANH        -0.2722
     16 N29        -1.5940   12.4440   15.5960 N.pl3     1 ANH        -0.2722
     17 C11        -2.2880   19.9770   16.6060 C.2       1 ANH         0.1971
     18 C10        -1.0030   20.7140   16.2760 C.3       1 ANH         0.1157
     19 N9         -0.9320   21.2560   14.8920 N.am      1 ANH        -0.2293
     20 O20        -3.3110   20.2340   15.9770 O.2       1 ANH        -0.3951
     21 C1          2.9430   25.4260   18.6360 C.3       1 ANH        -0.0311
     22 C2          2.0660   24.7860   17.6200 C.ar      1 ANH        -0.0460
     23 C3          2.5960   23.9820   16.5510 C.ar      1 ANH        -0.0588
     24 C4          1.7010   23.3830   15.5960 C.ar      1 ANH        -0.0419
     25 C5          0.2840   23.6190   15.7510 C.ar      1 ANH         0.1013
     26 C6         -0.2270   24.4190   16.8130 C.ar      1 ANH        -0.0419
     27 C7          0.6630   24.9930   17.7360 C.ar      1 ANH        -0.0588
     28 S8         -0.8860   22.9300   14.6560 S.o2      1 ANH         0.0672
     29 O18        -0.5540   23.1530   13.1090 O.2       1 ANH        -0.1510
     30 O19        -2.3250   23.3780   15.1000 O.2       1 ANH        -0.1510
     31 H1         -1.3247   18.8127   17.9274 H         1 ANH         0.1886
     32 H2         -3.8979   17.8056   17.3939 H         1 ANH         0.0840
     33 H3         -3.7804   17.0312   19.8087 H         1 ANH         0.0475
     34 H4         -2.2445   17.9540   19.9351 H         1 ANH         0.0475
     35 H5         -2.7819   21.5260   20.9106 H         1 ANH         0.0577
     36 H6         -2.1392   20.9447   19.3372 H         1 ANH         0.0577
     37 H7         -2.3271   19.8000   20.7088 H         1 ANH         0.0577
     38 H8         -0.8450   16.1708   20.5189 H         1 ANH         0.0557
     39 H9          0.4819   14.1726   19.8198 H         1 ANH         0.0599
     40 H10        -0.0372   13.0190   17.6755 H         1 ANH         0.0559
     41 H11        -3.2450   15.8944   16.9049 H         1 ANH         0.0556
     42 H12        -2.8159   13.6308   14.0204 H         1 ANH         0.3181
     43 H13        -3.0321   15.1482   14.9334 H         1 ANH         0.3181
     44 H14        -1.0480   11.9064   16.2843 H         1 ANH         0.3181
     45 H15        -1.8442   12.0188   14.6918 H         1 ANH         0.3181
     46 H16        -0.1635   20.0167   16.4138 H         1 ANH         0.0717
     47 H17        -0.9006   21.5545   16.9782 H         1 ANH         0.0717
     48 H18        -0.9117   20.6356   14.1080 H         1 ANH         0.1702
     49 H19         3.9934   25.1802   18.4207 H         1 ANH         0.0391
     50 H20         2.6771   25.0541   19.6365 H         1 ANH         0.0391
     51 H21         2.8074   26.5171   18.6024 H         1 ANH         0.0391
     52 H22         3.6656   23.8279   16.4651 H         1 ANH         0.0557
     53 H23         2.0791   22.7725   14.7840 H         1 ANH         0.0619
     54 H24        -1.2942   24.5836   16.9082 H         1 ANH         0.0619
     55 H25         0.2764   25.6007   18.5461 H         1 ANH         0.0557
@<TRIPOS>BOND
     1    1    2 1  
     2   17    1 am 
     3    2    3 1  
     4    2    4 1  
     5    3    8 1  
     6    4    5 2  
     7    4    6 1  
     8    6    7 1  
     9    8    9 ar 
    10    8   13 ar 
    11    9   10 ar 
    12   10   11 ar 
    13   12   11 ar 
    14   13   12 ar 
    15   12   14 1  
    16   14   15 ar 
    17   14   16 ar 
    18   18   17 1  
    19   17   20 2  
    20   19   18 1  
    21   28   19 am 
    22   22   21 1  
    23   23   22 ar 
    24   22   27 ar 
    25   24   23 ar 
    26   25   24 ar 
    27   25   26 ar 
    28   25   28 1  
    29   26   27 ar 
    30   28   29 2  
    31   28   30 2  
    32    1   31 1  
    33    2   32 1  
    34    3   33 1  
    35    3   34 1  
    36    7   35 1  
    37    7   36 1  
    38    7   37 1  
    39    9   38 1  
    40   10   39 1  
    41   11   40 1  
    42   13   41 1  
    43   15   42 1  
    44   15   43 1  
    45   16   44 1  
    46   16   45 1  
    47   18   46 1  
    48   18   47 1  
    49   19   48 1  
    50   21   49 1  
    51   21   50 1  
    52   21   51 1  
    53   23   52 1  
    54   24   53 1  
    55   26   54 1  
    56   27   55 1  
@<TRIPOS>SUBSTRUCTURE
     1 ANH         1

