### 
### Created by X-TOOL on Mon Aug  2 16:12:52 2021
### 

@<TRIPOS>MOLECULE
6d1b_ligand
   27    28     1     0     0
SMALL
GAST_HUCK


@<TRIPOS>ATOM
      1 C01        46.7080   14.8900   49.4270 C.3       1 FUJ         0.0609
      2 C03        48.5180   14.4780   48.0340 C.ar      1 FUJ         0.0910
      3 C04        48.6930   13.2000   48.4900 C.ar      1 FUJ        -0.0348
      4 C05        49.4760   12.3170   47.7730 C.ar      1 FUJ        -0.0590
      5 C13        51.3400   12.3110   44.6030 C.2       1 FUJ         0.0083
      6 C17        49.9010   13.9960   46.1470 C.ar      1 FUJ         0.1350
      7 C18        49.1180   14.8520   46.8900 C.ar      1 FUJ         0.0085
      8 C06        50.0720   12.7300   46.5950 C.ar      1 FUJ         0.0246
      9 C07        50.8830   11.9220   45.8350 C.2       1 FUJ        -0.0120
     10 C08        51.0020   10.4650   46.2650 C.3       1 FUJ         0.0584
     11 C14        51.1250   13.6500   44.2280 C.2       1 FUJ         0.2448
     12 O02        47.7350   15.4210   48.6890 O.3       1 FUJ        -0.3192
     13 O10        48.5470    9.5560   46.9960 O.co2     1 FUJ        -0.5604
     14 O11        49.9340    7.9830   45.7170 O.co2     1 FUJ        -0.5604
     15 O12        48.8620    9.9220   44.5930 O.co2     1 FUJ        -0.5604
     16 O15        51.5060   14.0720   43.2370 O.2       1 FUJ        -0.3879
     17 O16        50.4520   14.4490   45.0160 O.3       1 FUJ        -0.2167
     18 P09        49.4710    9.4370   45.8640 P.3       1 FUJ         0.0731
     19 H1         46.1439   15.7026   49.9080 H         1 FUJ         0.0581
     20 H2         47.1182   14.2218   50.1985 H         1 FUJ         0.0581
     21 H3         46.0383   14.3199   48.7664 H         1 FUJ         0.0581
     22 H4         48.2185   12.8816   49.4112 H         1 FUJ         0.0493
     23 H5         49.6230   11.3047   48.1317 H         1 FUJ         0.0617
     24 H6         51.8490   11.6120   43.9410 H         1 FUJ         0.0410
     25 H7         48.9799   15.8680   46.5383 H         1 FUJ         0.0489
     26 H8         51.1672   10.4348   47.3521 H         1 FUJ         0.0655
     27 H9         51.8658   10.0191   45.7503 H         1 FUJ         0.0655
@<TRIPOS>BOND
     1   12    1 1  
     2    3    2 ar 
     3    7    2 ar 
     4    2   12 1  
     5    4    3 ar 
     6    8    4 ar 
     7    9    5 2  
     8    5   11 1  
     9    6    7 ar 
    10    8    6 ar 
    11    6   17 1  
    12    8    9 1  
    13    9   10 1  
    14   10   18 1  
    15   11   16 2  
    16   11   17 1  
    17   18   13 ar 
    18   18   14 ar 
    19   18   15 ar 
    20    1   19 1  
    21    1   20 1  
    22    1   21 1  
    23    3   22 1  
    24    4   23 1  
    25    5   24 1  
    26    7   25 1  
    27   10   26 1  
    28   10   27 1  
@<TRIPOS>SUBSTRUCTURE
     1 FUJ         1

