6d1b_ligand
  -I-interpret- 

 29 30  0  0  0  0  0  0  0  0999 V2000
   46.7080   14.8900   49.4270 C   0  0  0  0  0
   48.5180   14.4780   48.0340 C   0  0  0  0  0
   48.6930   13.2000   48.4900 C   0  0  0  0  0
   49.4760   12.3170   47.7730 C   0  0  0  0  0
   51.3400   12.3110   44.6030 C   0  0  0  0  0
   49.9010   13.9960   46.1470 C   0  0  0  0  0
   49.1180   14.8520   46.8900 C   0  0  0  0  0
   50.0720   12.7300   46.5950 C   0  0  0  0  0
   50.8830   11.9220   45.8350 C   0  0  0  0  0
   51.0020   10.4650   46.2650 C   0  0  0  0  0
   51.1250   13.6500   44.2280 C   0  0  0  0  0
   47.7350   15.4210   48.6890 O   0  0  0  0  0
   48.5470    9.5560   46.9960 O   0  0  0  0  0
   49.9340    7.9830   45.7170 O   0  0  0  0  0
   48.8620    9.9220   44.5930 O   0  0  0  0  0
   51.5060   14.0720   43.2370 O   0  0  0  0  0
   50.4520   14.4490   45.0160 O   0  0  0  0  0
   49.4710    9.4370   45.8640 P   0  0  0  0  0
   46.0452   14.3253   48.7713 H   0  0  0  0  0
   47.1157   14.2281   50.1910 H   0  0  0  0  0
   46.1498   15.6961   49.9031 H   0  0  0  0  0
   48.2159   12.8798   49.4163 H   0  0  0  0  0
   49.6238   11.2991   48.1337 H   0  0  0  0  0
   51.8495   11.6114   43.9404 H   0  0  0  0  0
   48.9792   15.8737   46.5364 H   0  0  0  0  0
   51.1323   10.4516   47.3471 H   0  0  0  0  0
   51.8411   10.0299   45.7221 H   0  0  0  0  0
   50.5381    7.9143   44.9741 H   0  0  0  0  0
   49.4966    9.8275   43.8789 H   0  0  0  0  0
 12  1  1  0  0  0
  3  2  4  0  0  0
  7  2  4  0  0  0
  2 12  1  0  0  0
  4  3  4  0  0  0
  8  4  4  0  0  0
  9  5  2  0  0  0
  5 11  1  0  0  0
  6  7  4  0  0  0
  8  6  4  0  0  0
  6 17  1  0  0  0
  8  9  1  0  0  0
  9 10  1  0  0  0
 10 18  1  0  0  0
 11 16  2  0  0  0
 11 17  1  0  0  0
 18 13  2  0  0  0
 18 14  1  0  0  0
 18 15  1  0  0  0
  1 19  1  0  0  0
  1 20  1  0  0  0
  1 21  1  0  0  0
  3 22  1  0  0  0
  4 23  1  0  0  0
  5 24  1  0  0  0
  7 25  1  0  0  0
 10 26  1  0  0  0
 10 27  1  0  0  0
 14 28  1  0  0  0
 15 29  1  0  0  0
M  END
$$$$
