3u8l_ligand
  -I-interpret- 

 39 41  0  0  0  0  0  0  0  0999 V2000
   -8.1650   27.7160   31.9910 C   0  0  0  0  0
   -8.3060   28.3480   30.7320 C   0  0  0  0  0
   -9.4500   29.1080   30.4170 C   0  0  0  0  0
  -10.4800   29.2290   31.3660 C   0  0  0  0  0
  -10.3580   28.5920   32.6150 C   0  0  0  0  0
   -9.2160   27.8310   32.9280 C   0  0  0  0  0
   -4.7900   25.2370   32.5140 C   0  0  0  0  0
   -5.7770   27.3120   32.8180 C   0  0  0  0  0
   -6.9890   26.8760   32.2410 C   0  0  0  0  0
   -7.0280   25.5650   31.7450 C   0  0  0  0  0
   -5.9390   24.6840   31.8830 C   0  0  0  0  0
   -7.3790   22.7160   31.3300 C   0  0  0  0  0
   -7.9770   22.9150   29.9330 C   0  0  0  0  0
   -7.4690   21.8730   28.9170 C   0  0  0  0  0
   -5.3540   21.3360   30.1580 C   0  0  0  0  0
   -4.9480   22.4790   31.1180 C   0  0  0  0  0
   -6.0670   23.3830   31.4600 N   0  0  0  0  0
   -5.9930   21.7980   28.9020 N   0  3  0  0  0
   -4.7010   26.5030   32.9760 N   0  0  0  0  0
   -7.5133   28.2446   29.9911 H   0  0  0  0  0
   -9.5355   29.5974   29.4468 H   0  0  0  0  0
  -11.3702   29.8142   31.1353 H   0  0  0  0  0
  -11.1578   28.6892   33.3491 H   0  0  0  0  0
   -9.1426   27.3304   33.8934 H   0  0  0  0  0
   -3.9190   24.5926   32.6331 H   0  0  0  0  0
   -5.7028   28.3469   33.1519 H   0  0  0  0  0
   -7.9281   25.2180   31.2376 H   0  0  0  0  0
   -7.2402   21.6477   31.4963 H   0  0  0  0  0
   -8.0603   23.1507   32.0614 H   0  0  0  0  0
   -7.6799   23.9019   29.5784 H   0  0  0  0  0
   -9.0587   22.8064   30.0125 H   0  0  0  0  0
   -7.8078   22.1682   27.9240 H   0  0  0  0  0
   -7.8595   20.8963   29.2027 H   0  0  0  0  0
   -6.0831   20.7183   30.6824 H   0  0  0  0  0
   -4.4413   20.8087   29.8803 H   0  0  0  0  0
   -4.1856   23.0748   30.6161 H   0  0  0  0  0
   -4.5994   22.0222   32.0443 H   0  0  0  0  0
   -5.6591   22.7486   28.7431 H   0  0  0  0  0
   -5.7478   21.1134   28.1867 H   0  0  0  0  0
  1  2  4  0  0  0
  1  6  4  0  0  0
  9  1  1  0  0  0
  2  3  4  0  0  0
  3  4  4  0  0  0
  5  4  4  0  0  0
  6  5  4  0  0  0
 11  7  4  0  0  0
  7 19  4  0  0  0
  9  8  4  0  0  0
 19  8  4  0  0  0
 10  9  4  0  0  0
 11 10  4  0  0  0
 17 11  1  0  0  0
 13 12  1  0  0  0
 12 17  1  0  0  0
 14 13  1  0  0  0
 18 14  1  0  0  0
 15 16  1  0  0  0
 15 18  1  0  0  0
 16 17  1  0  0  0
  2 20  1  0  0  0
  3 21  1  0  0  0
  4 22  1  0  0  0
  5 23  1  0  0  0
  6 24  1  0  0  0
  7 25  1  0  0  0
  8 26  1  0  0  0
 10 27  1  0  0  0
 12 28  1  0  0  0
 12 29  1  0  0  0
 13 30  1  0  0  0
 13 31  1  0  0  0
 14 32  1  0  0  0
 14 33  1  0  0  0
 15 34  1  0  0  0
 15 35  1  0  0  0
 16 36  1  0  0  0
 16 37  1  0  0  0
 18 38  1  0  0  0
 18 39  1  0  0  0
M  END
$$$$
