### 
### Created by X-TOOL on Mon Sep 10 21:13:06 2018
### 

@<TRIPOS>MOLECULE
3u8l_ligand
   39    41     1     0     0
SMALL
GAST_HUCK


@<TRIPOS>ATOM
      1 C1         -8.1650   27.7160   31.9910 C.ar      1 09Q        -0.0141
      2 C2         -8.3060   28.3480   30.7320 C.ar      1 09Q        -0.0526
      3 C3         -9.4500   29.1080   30.4170 C.ar      1 09Q        -0.0602
      4 C4        -10.4800   29.2290   31.3660 C.ar      1 09Q        -0.0609
      5 C5        -10.3580   28.5920   32.6150 C.ar      1 09Q        -0.0602
      6 C6         -9.2160   27.8310   32.9280 C.ar      1 09Q        -0.0526
      7 C7         -4.7900   25.2370   32.5140 C.ar      1 09Q         0.0278
      8 C8         -5.7770   27.3120   32.8180 C.ar      1 09Q         0.0048
      9 C9         -6.9890   26.8760   32.2410 C.ar      1 09Q        -0.0029
     10 C10        -7.0280   25.5650   31.7450 C.ar      1 09Q        -0.0181
     11 C11        -5.9390   24.6840   31.8830 C.ar      1 09Q         0.0684
     12 C12        -7.3790   22.7160   31.3300 C.3       1 09Q         0.0331
     13 C13        -7.9770   22.9150   29.9330 C.3       1 09Q         0.0073
     14 C14        -7.4690   21.8730   28.9170 C.3       1 09Q        -0.0318
     15 C15        -5.3540   21.3360   30.1580 C.3       1 09Q        -0.0134
     16 C16        -4.9480   22.4790   31.1180 C.3       1 09Q         0.0680
     17 N1         -6.0670   23.3830   31.4600 N.pl3     1 09Q        -0.2977
     18 N2         -5.9930   21.7980   28.9020 N.4       1 09Q         0.2284
     19 N3         -4.7010   26.5030   32.9760 N.ar      1 09Q        -0.3100
     20 H1         -7.5176   28.2451   29.9951 H         1 09Q         0.0632
     21 H2         -9.5350   29.5947   29.4521 H         1 09Q         0.0620
     22 H3        -11.3653   29.8110   31.1365 H         1 09Q         0.0624
     23 H4        -11.1534   28.6886   33.3451 H         1 09Q         0.0620
     24 H5         -9.1430   27.3331   33.8881 H         1 09Q         0.0632
     25 H6         -3.9237   24.5962   32.6325 H         1 09Q         0.0719
     26 H7         -5.7033   28.3412   33.1501 H         1 09Q         0.0717
     27 H8         -7.9232   25.2199   31.2404 H         1 09Q         0.0632
     28 H9         -7.2516   21.6390   31.5137 H         1 09Q         0.0518
     29 H10        -8.0687   23.1363   32.0768 H         1 09Q         0.0518
     30 H11        -7.7062   23.9187   29.5735 H         1 09Q         0.0336
     31 H12        -9.0717   22.8337   30.0035 H         1 09Q         0.0336
     32 H13        -7.8218   22.1524   27.9133 H         1 09Q         0.0814
     33 H14        -7.8732   20.8861   29.1863 H         1 09Q         0.0814
     34 H15        -6.0617   20.6783   30.6839 H         1 09Q         0.0833
     35 H16        -4.4497   20.7671   29.8964 H         1 09Q         0.0833
     36 H17        -4.1548   23.0717   30.6390 H         1 09Q         0.0569
     37 H18        -4.5628   22.0338   32.0472 H         1 09Q         0.0569
     38 H19        -5.6392   22.7192   28.6965 H         1 09Q         0.2014
     39 H20        -5.7237   21.1629   28.1670 H         1 09Q         0.2014
@<TRIPOS>BOND
     1    1    2 ar 
     2    1    6 ar 
     3    9    1 1  
     4    2    3 ar 
     5    3    4 ar 
     6    5    4 ar 
     7    6    5 ar 
     8   11    7 ar 
     9    7   19 ar 
    10    9    8 ar 
    11   19    8 ar 
    12   10    9 ar 
    13   11   10 ar 
    14   17   11 1  
    15   13   12 1  
    16   12   17 1  
    17   14   13 1  
    18   18   14 1  
    19   15   16 1  
    20   15   18 1  
    21   16   17 1  
    22    2   20 1  
    23    3   21 1  
    24    4   22 1  
    25    5   23 1  
    26    6   24 1  
    27    7   25 1  
    28    8   26 1  
    29   10   27 1  
    30   12   28 1  
    31   12   29 1  
    32   13   30 1  
    33   13   31 1  
    34   14   32 1  
    35   14   33 1  
    36   15   34 1  
    37   15   35 1  
    38   16   36 1  
    39   16   37 1  
    40   18   38 1  
    41   18   39 1  
@<TRIPOS>SUBSTRUCTURE
     1 09Q         1

