### 
### Created by X-TOOL on Mon Sep 10 21:13:20 2018
### 

@<TRIPOS>MOLECULE
4r74_ligand
   27    27     1     0     0
SMALL
GAST_HUCK


@<TRIPOS>ATOM
      1 O1        -11.2630   21.8490   -9.7360 O.3       1 F6P        -0.3896
      2 C1        -10.8400   23.1210   -9.4030 C.3       1 F6P         0.1006
      3 C2         -9.6390   23.1860   -8.5060 C.3       1 F6P         0.2205
      4 O2        -10.0160   22.8390   -7.2150 O.3       1 F6P        -0.3608
      5 C3         -9.0480   24.5150   -8.4750 C.3       1 F6P         0.1392
      6 O3         -9.4350   25.2050   -7.3460 O.3       1 F6P        -0.3837
      7 C4         -7.6010   24.2350   -8.4380 C.3       1 F6P         0.1148
      8 O4         -6.9220   25.3190   -8.9390 O.3       1 F6P        -0.3864
      9 C5         -7.5190   23.0710   -9.3640 C.3       1 F6P         0.1181
     10 O5         -8.5980   22.2720   -9.0200 O.3       1 F6P        -0.3361
     11 C6         -6.2610   22.2660   -9.3140 C.3       1 F6P         0.1071
     12 O6         -6.3030   21.1590  -10.1390 O.3       1 F6P        -0.2734
     13 P          -5.2630   20.0030  -10.0570 P.3       1 F6P         0.2008
     14 O1P        -3.9000   20.5230  -10.4440 O.co2     1 F6P        -0.5537
     15 O2P        -5.2180   19.4410   -8.6580 O.co2     1 F6P        -0.5537
     16 O3P        -5.6800   18.9170  -11.0220 O.co2     1 F6P        -0.5537
     17 H1        -11.4918   21.3753   -8.9449 H         1 F6P         0.2096
     18 H2        -11.6708   23.6328   -8.8952 H         1 F6P         0.0612
     19 H3        -10.5966   23.6525  -10.3348 H         1 F6P         0.0612
     20 H4        -10.3608   21.9537   -7.2141 H         1 F6P         0.2129
     21 H5         -9.3200   25.0908   -9.3719 H         1 F6P         0.0675
     22 H6         -9.1538   24.7291   -6.5734 H         1 F6P         0.2101
     23 H7         -7.2428   23.9880   -7.4277 H         1 F6P         0.0648
     24 H8         -7.1142   26.0840   -8.4095 H         1 F6P         0.2100
     25 H9         -7.6375   23.4365  -10.3947 H         1 F6P         0.0650
     26 H10        -6.1004   21.9280   -8.2796 H         1 F6P         0.0639
     27 H11        -5.4217   22.9052   -9.6254 H         1 F6P         0.0639
@<TRIPOS>BOND
     1    1    2 1  
     2    2    3 1  
     3    3    4 1  
     4    3    5 1  
     5    3   10 1  
     6    5    6 1  
     7    5    7 1  
     8    7    8 1  
     9    7    9 1  
    10    9   10 1  
    11    9   11 1  
    12   11   12 1  
    13   12   13 1  
    14   13   14 ar 
    15   13   15 ar 
    16   13   16 ar 
    17    1   17 1  
    18    2   18 1  
    19    2   19 1  
    20    4   20 1  
    21    5   21 1  
    22    6   22 1  
    23    7   23 1  
    24    8   24 1  
    25    9   25 1  
    26   11   26 1  
    27   11   27 1  
@<TRIPOS>SUBSTRUCTURE
     1 F6P         1

