4r74_ligand
  -I-interpret- 

 29 29  0  0  0  0  0  0  0  0999 V2000
  -11.2630   21.8490   -9.7360 O   0  0  0  0  0
  -10.8400   23.1210   -9.4030 C   0  0  0  0  0
   -9.6390   23.1860   -8.5060 C   0  0  0  0  0
  -10.0160   22.8390   -7.2150 O   0  0  0  0  0
   -9.0480   24.5150   -8.4750 C   0  0  0  0  0
   -9.4350   25.2050   -7.3460 O   0  0  0  0  0
   -7.6010   24.2350   -8.4380 C   0  0  0  0  0
   -6.9220   25.3190   -8.9390 O   0  0  0  0  0
   -7.5190   23.0710   -9.3640 C   0  0  0  0  0
   -8.5980   22.2720   -9.0200 O   0  0  0  0  0
   -6.2610   22.2660   -9.3140 C   0  0  0  0  0
   -6.3030   21.1590  -10.1390 O   0  0  0  0  0
   -5.2630   20.0030  -10.0570 P   0  0  0  0  0
   -3.9000   20.5230  -10.4440 O   0  0  0  0  0
   -5.2180   19.4410   -8.6580 O   0  0  0  0  0
   -5.6800   18.9170  -11.0220 O   0  0  0  0  0
  -12.0314   21.9081  -10.3085 H   0  0  0  0  0
  -11.6603   23.5892   -8.8590 H   0  0  0  0  0
  -10.5584   23.6094  -10.3359 H   0  0  0  0  0
  -10.6915   23.4470   -6.9058 H   0  0  0  0  0
   -9.3504   25.1340   -9.3197 H   0  0  0  0  0
  -10.3783   25.3788   -7.3862 H   0  0  0  0  0
   -7.1795   24.0422   -7.4515 H   0  0  0  0  0
   -6.9921   26.0518   -8.3228 H   0  0  0  0  0
   -7.5284   23.4488  -10.3864 H   0  0  0  0  0
   -6.1285   21.9156   -8.2904 H   0  0  0  0  0
   -5.4427   22.9028   -9.6501 H   0  0  0  0  0
   -3.9357   20.8790  -11.3348 H   0  0  0  0  0
   -5.7085   19.2752  -11.9122 H   0  0  0  0  0
  1  2  1  0  0  0
  2  3  1  0  0  0
  3  4  1  0  0  0
  3  5  1  0  0  0
  3 10  1  0  0  0
  5  6  1  0  0  0
  5  7  1  0  0  0
  7  8  1  0  0  0
  7  9  1  0  0  0
  9 10  1  0  0  0
  9 11  1  0  0  0
 11 12  1  0  0  0
 12 13  1  0  0  0
 13 14  1  0  0  0
 13 15  2  0  0  0
 13 16  1  0  0  0
  1 17  1  0  0  0
  2 18  1  0  0  0
  2 19  1  0  0  0
  4 20  1  0  0  0
  5 21  1  0  0  0
  6 22  1  0  0  0
  7 23  1  0  0  0
  8 24  1  0  0  0
  9 25  1  0  0  0
 11 26  1  0  0  0
 11 27  1  0  0  0
 14 28  1  0  0  0
 16 29  1  0  0  0
M  END
$$$$
