1bt6_ligand
  -I-interpret- 

182182  0  0  0  0  0  0  0  0999 V2000
   60.8150   26.5290   29.0780 C   0  0  0  0  0
   59.8440   27.1110   29.5550 O   0  0  0  0  0
   62.1690   26.6070   29.7410 C   0  0  0  0  0
   61.0100   25.7170   28.0480 N   0  0  0  0  0
   60.1410   25.5590   26.9580 C   0  0  0  0  0
   58.9520   24.7790   27.5500 C   0  0  0  0  0
   57.7600   25.0950   27.4030 O   0  0  0  0  0
   60.7130   24.9870   25.6720 C   0  0  0  0  0
   60.4540   23.5840   25.7250 O   0  0  0  0  0
   59.2980   23.8650   28.4730 N   0  0  0  0  0
   58.1770   23.1960   29.1930 C   0  0  0  0  0
   57.6140   24.0110   30.3310 C   0  0  0  0  0
   56.3650   24.0160   31.0000 O   0  0  0  0  0
   58.4090   21.7520   29.3850 C   0  0  0  0  0
   58.0600   21.1530   30.5760 O   0  0  0  0  0
   59.6450   21.1910   28.7670 C   0  0  0  0  0
   58.3870   24.8420   31.0740 N   0  0  0  0  0
   57.7830   25.6520   32.1490 C   0  0  0  0  0
   56.9580   26.7480   31.5270 C   0  0  0  0  0
   55.9050   27.1220   32.0450 O   0  0  0  0  0
   58.8560   26.2500   33.1460 C   0  0  0  0  0
   58.4170   27.4620   33.9090 C   0  0  0  0  0
   59.2140   25.1610   34.1550 C   0  0  0  0  0
   57.4450   27.2570   30.3970 N   0  0  0  0  0
   56.7210   28.3130   29.6690 C   0  0  0  0  0
   55.3290   27.8300   29.2980 C   0  0  0  0  0
   54.3560   28.4990   29.6250 O   0  0  0  0  0
   57.5290   28.7900   28.4770 C   0  0  0  0  0
   56.7460   29.7860   27.6760 C   0  0  0  0  0
   56.8950   31.1340   27.7650 N   0  0  0  0  0
   55.7480   29.5930   26.7640 C   0  0  0  0  0
   56.0290   31.7650   27.0280 C   0  0  0  0  0
   55.3450   30.8430   26.3840 N   0  0  0  0  0
   55.1570   26.6500   28.7390 N   0  0  0  0  0
   53.8840   26.0850   28.3600 C   0  0  0  0  0
   53.0560   25.7500   29.5720 C   0  0  0  0  0
   51.8390   25.9930   29.5280 O   0  0  0  0  0
   54.0170   24.8250   27.5140 C   0  0  0  0  0
   55.0160   24.9790   26.3520 C   0  0  0  0  0
   54.3240   25.3630   25.0390 C   0  0  0  0  0
   53.2510   24.7620   24.7850 O   0  0  0  0  0
   54.8320   26.2430   24.3040 O   0  0  0  0  0
   53.6740   25.2150   30.6380 N   0  0  0  0  0
   52.7930   24.9690   31.8100 C   0  0  0  0  0
   52.3610   26.3110   32.3580 C   0  0  0  0  0
   51.1840   26.4530   32.6940 O   0  0  0  0  0
   53.4480   24.0900   32.8800 C   0  0  0  0  0
   53.8500   22.7800   32.2630 C   0  0  0  0  0
   52.5840   23.9340   34.1160 C   0  0  0  0  0
   54.2940   21.6340   33.1020 C   0  0  0  0  0
   53.2280   27.3420   32.4500 N   0  0  0  0  0
   52.6980   28.5940   33.0220 C   0  0  0  0  0
   51.4500   29.0780   32.3180 C   0  0  0  0  0
   50.5110   29.5700   32.9260 O   0  0  0  0  0
   53.7430   29.6730   33.2480 C   0  0  0  0  0
   54.8740   29.1780   34.2170 C   0  0  0  0  0
   56.0130   30.1640   34.2260 C   0  0  0  0  0
   54.3010   28.8940   35.5740 C   0  0  0  0  0
   51.4590   28.8890   30.9950 N   0  0  0  0  0
   50.3360   29.1660   30.1030 C   0  0  0  0  0
   49.1150   28.3350   30.4280 C   0  0  0  0  0
   48.0260   28.8800   30.3090 O   0  0  0  0  0
   50.7740   29.0420   28.6420 C   0  0  0  0  0
   51.2360   30.3830   28.3030 O   0  0  0  0  0
   49.2130   27.1200   30.9230 N   0  0  0  0  0
   48.0930   26.3020   31.3630 C   0  0  0  0  0
   47.6270   26.6870   32.7780 C   0  0  0  0  0
   46.6770   26.1400   33.3510 O   0  0  0  0  0
   48.4400   24.8090   31.4070 C   0  0  0  0  0
   48.0090   24.0090   30.2010 C   0  0  0  0  0
   48.4080   24.7240   28.9160 C   0  0  0  0  0
   48.4380   23.7510   27.7430 C   0  0  0  0  0
   49.1220   24.3580   26.5560 N   0  3  0  0  0
   48.3460   27.6010   33.4180 N   0  0  0  0  0
   47.9710   28.0520   34.7640 C   0  0  0  0  0
   47.3690   29.4480   34.5580 C   0  0  0  0  0
   46.7640   29.9910   35.4520 O   0  0  0  0  0
   49.1140   28.0900   35.7330 C   0  0  0  0  0
   49.9170   26.8440   36.0540 C   0  0  0  0  0
   50.6750   27.0270   37.3640 C   0  0  0  0  0
   49.0640   25.5940   36.0720 C   0  0  0  0  0
   47.5570   29.9250   33.3280 N   0  0  0  0  0
   47.0760   31.1820   32.8070 C   0  0  0  0  0
   46.0270   31.0420   31.7030 C   0  0  0  0  0
   45.1860   30.0930   31.7800 O   0  0  0  0  0
   48.2760   32.0000   32.2800 C   0  0  0  0  0
   48.5580   33.0450   33.1960 O   0  0  0  0  0
   45.9959   31.8958   30.6837 O   0  0  0  0  0
   62.4914   27.6473   29.7845 H   0  0  0  0  0
   62.1012   26.2037   30.7514 H   0  0  0  0  0
   62.8886   26.0261   29.1641 H   0  0  0  0  0
   61.8644   25.1599   28.0482 H   0  0  0  0  0
   59.8577   26.5333   26.5598 H   0  0  0  0  0
   61.7802   25.1914   25.5859 H   0  0  0  0  0
   60.2539   25.4433   24.7950 H   0  0  0  0  0
   60.7964   23.1663   24.9313 H   0  0  0  0  0
   60.2736   23.6415   28.6699 H   0  0  0  0  0
   57.3047   23.1797   28.5396 H   0  0  0  0  0
   57.5841   21.4204   28.7544 H   0  0  0  0  0
   58.2752   20.2182   30.5379 H   0  0  0  0  0
   59.6144   21.3486   27.6889 H   0  0  0  0  0
   60.5182   21.6927   29.1842 H   0  0  0  0  0
   59.7026   20.1231   28.9779 H   0  0  0  0  0
   59.3880   24.9070   30.8890 H   0  0  0  0  0
   57.1495   24.9989   32.7491 H   0  0  0  0  0
   59.6961   26.5715   32.5304 H   0  0  0  0  0
   58.1664   28.2593   33.2092 H   0  0  0  0  0
   57.5411   27.2146   34.5088 H   0  0  0  0  0
   59.2252   27.7909   34.5623 H   0  0  0  0  0
   58.3176   24.8619   34.6982 H   0  0  0  0  0
   59.6252   24.3001   33.6279 H   0  0  0  0  0
   59.9538   25.5465   34.8565 H   0  0  0  0  0
   58.3317   26.9108   30.0305 H   0  0  0  0  0
   56.5908   29.1814   30.3147 H   0  0  0  0  0
   57.7653   27.9344   27.8444 H   0  0  0  0  0
   58.4427   29.2641   28.8356 H   0  0  0  0  0
   55.3542   28.6396   26.4119 H   0  0  0  0  0
   55.8958   32.8445   26.9575 H   0  0  0  0  0
   55.9906   26.0902   28.5594 H   0  0  0  0  0
   53.3944   26.8535   27.7618 H   0  0  0  0  0
   53.0389   24.6109   27.0832 H   0  0  0  0  0
   54.3832   24.0286   28.1619 H   0  0  0  0  0
   55.5145   24.0209   26.2046 H   0  0  0  0  0
   55.7166   25.7730   26.6105 H   0  0  0  0  0
   53.0622   24.1358   25.4877 H   0  0  0  0  0
   54.6699   24.9947   30.6429 H   0  0  0  0  0
   51.9210   24.4005   31.4866 H   0  0  0  0  0
   54.3490   24.5847   33.2427 H   0  0  0  0  0
   54.7314   23.0286   31.6718 H   0  0  0  0  0
   52.9350   22.4207   31.7921 H   0  0  0  0  0
   52.3993   24.9146   34.5548 H   0  0  0  0  0
   51.6354   23.4740   33.8390 H   0  0  0  0  0
   53.0982   23.3017   34.8398 H   0  0  0  0  0
   55.1761   21.9237   33.6731 H   0  0  0  0  0
   53.4927   21.3540   33.7858 H   0  0  0  0  0
   54.5373   20.7878   32.4595 H   0  0  0  0  0
   54.1965   27.2596   32.1408 H   0  0  0  0  0
   52.3797   28.3339   34.0315 H   0  0  0  0  0
   53.2561   30.5388   33.6968 H   0  0  0  0  0
   54.1943   29.9252   32.2884 H   0  0  0  0  0
   55.2923   28.2357   33.8631 H   0  0  0  0  0
   56.4187   30.2578   33.2187 H   0  0  0  0  0
   55.6493   31.1342   34.5644 H   0  0  0  0  0
   56.7922   29.8109   34.9015 H   0  0  0  0  0
   53.8563   29.8039   35.9769 H   0  0  0  0  0
   53.5370   28.1211   35.4899 H   0  0  0  0  0
   55.0948   28.5513   36.2377 H   0  0  0  0  0
   52.3146   28.5238   30.5766 H   0  0  0  0  0
   50.0244   30.1978   30.2655 H   0  0  0  0  0
   49.9655   28.7050   27.9933 H   0  0  0  0  0
   51.5492   28.2883   28.5034 H   0  0  0  0  0
   51.5335   30.3966   27.3904 H   0  0  0  0  0
   50.1477   26.7199   31.0048 H   0  0  0  0  0
   47.3068   26.4849   30.6305 H   0  0  0  0  0
   47.9107   24.3912   32.2634 H   0  0  0  0  0
   49.5271   24.7430   31.4524 H   0  0  0  0  0
   46.9252   23.8946   30.2208 H   0  0  0  0  0
   48.4963   23.0344   30.2299 H   0  0  0  0  0
   49.4029   25.1502   29.0450 H   0  0  0  0  0
   47.6771   25.5050   28.7065 H   0  0  0  0  0
   47.4125   23.5057   27.4669 H   0  0  0  0  0
   48.9874   22.8589   28.0437 H   0  0  0  0  0
   49.1275   23.6866   25.7881 H   0  0  0  0  0
   48.6213   25.1994   26.2700 H   0  0  0  0  0
   50.0812   24.5998   26.8047 H   0  0  0  0  0
   49.1716   27.9961   32.9678 H   0  0  0  0  0
   47.2713   27.3494   35.2165 H   0  0  0  0  0
   48.6444   28.3504   36.6816 H   0  0  0  0  0
   49.8376   28.7527   35.2584 H   0  0  0  0  0
   50.6416   26.7034   35.2520 H   0  0  0  0  0
   51.3534   27.8754   37.2743 H   0  0  0  0  0
   49.9651   27.2115   38.1703 H   0  0  0  0  0
   51.2465   26.1245   37.5808 H   0  0  0  0  0
   48.2863   25.6972   36.8287 H   0  0  0  0  0
   48.6044   25.4552   35.0934 H   0  0  0  0  0
   49.6891   24.7325   36.3068 H   0  0  0  0  0
   48.0966   29.3414   32.6887 H   0  0  0  0  0
   46.5776   31.6909   33.6320 H   0  0  0  0  0
   48.0345   32.4210   31.3040 H   0  0  0  0  0
   49.1474   31.3528   32.1800 H   0  0  0  0  0
   49.3032   33.5580   32.8749 H   0  0  0  0  0
   46.6982   32.5421   30.7875 H   0  0  0  0  0
  1  2  2  0  0  0
  1  3  1  0  0  0
  5  4  1  0  0  0
  5  8  1  0  0  0
  6  5  1  0  0  0
  6  7  2  0  0  0
  8  9  1  0  0  0
  4  1  1  0  0  0
 11 10  1  0  0  0
 11 14  1  0  0  0
 12 11  1  0  0  0
 12 13  2  0  0  0
 14 16  1  0  0  0
 14 15  1  0  0  0
 10  6  1  0  0  0
 18 17  1  0  0  0
 18 21  1  0  0  0
 19 18  1  0  0  0
 19 20  2  0  0  0
 21 23  1  0  0  0
 21 22  1  0  0  0
 17 12  1  0  0  0
 25 24  1  0  0  0
 25 28  1  0  0  0
 26 25  1  0  0  0
 26 27  2  0  0  0
 28 29  1  0  0  0
 29 30  4  0  0  0
 29 31  4  0  0  0
 31 33  4  0  0  0
 33 32  4  0  0  0
 30 32  4  0  0  0
 24 19  1  0  0  0
 35 34  1  0  0  0
 35 38  1  0  0  0
 36 35  1  0  0  0
 36 37  2  0  0  0
 38 39  1  0  0  0
 39 40  1  0  0  0
 40 42  2  0  0  0
 40 41  1  0  0  0
 34 26  1  0  0  0
 44 43  1  0  0  0
 44 47  1  0  0  0
 45 44  1  0  0  0
 45 46  2  0  0  0
 47 49  1  0  0  0
 47 48  1  0  0  0
 48 50  1  0  0  0
 43 36  1  0  0  0
 52 51  1  0  0  0
 52 55  1  0  0  0
 53 52  1  0  0  0
 53 54  2  0  0  0
 55 56  1  0  0  0
 56 57  1  0  0  0
 56 58  1  0  0  0
 51 45  1  0  0  0
 60 59  1  0  0  0
 60 63  1  0  0  0
 61 60  1  0  0  0
 61 62  2  0  0  0
 63 64  1  0  0  0
 59 53  1  0  0  0
 66 65  1  0  0  0
 66 69  1  0  0  0
 67 66  1  0  0  0
 67 68  2  0  0  0
 69 70  1  0  0  0
 70 71  1  0  0  0
 71 72  1  0  0  0
 72 73  1  0  0  0
 65 61  1  0  0  0
 75 74  1  0  0  0
 75 78  1  0  0  0
 76 75  1  0  0  0
 76 77  2  0  0  0
 78 79  1  0  0  0
 79 80  1  0  0  0
 79 81  1  0  0  0
 74 67  1  0  0  0
 82 83  1  0  0  0
 83 86  1  0  0  0
 83 84  1  0  0  0
 84 85  2  0  0  0
 86 87  1  0  0  0
 76 82  1  0  0  0
 84 88  1  0  0  0
  3 89  1  0  0  0
  3 90  1  0  0  0
  3 91  1  0  0  0
  4 92  1  0  0  0
  5 93  1  0  0  0
  8 94  1  0  0  0
  8 95  1  0  0  0
  9 96  1  0  0  0
 10 97  1  0  0  0
 11 98  1  0  0  0
 14 99  1  0  0  0
 15100  1  0  0  0
 16101  1  0  0  0
 16102  1  0  0  0
 16103  1  0  0  0
 17104  1  0  0  0
 18105  1  0  0  0
 21106  1  0  0  0
 22107  1  0  0  0
 22108  1  0  0  0
 22109  1  0  0  0
 23110  1  0  0  0
 23111  1  0  0  0
 23112  1  0  0  0
 24113  1  0  0  0
 25114  1  0  0  0
 28115  1  0  0  0
 28116  1  0  0  0
 31117  1  0  0  0
 32118  1  0  0  0
 34119  1  0  0  0
 35120  1  0  0  0
 38121  1  0  0  0
 38122  1  0  0  0
 39123  1  0  0  0
 39124  1  0  0  0
 41125  1  0  0  0
 43126  1  0  0  0
 44127  1  0  0  0
 47128  1  0  0  0
 48129  1  0  0  0
 48130  1  0  0  0
 49131  1  0  0  0
 49132  1  0  0  0
 49133  1  0  0  0
 50134  1  0  0  0
 50135  1  0  0  0
 50136  1  0  0  0
 51137  1  0  0  0
 52138  1  0  0  0
 55139  1  0  0  0
 55140  1  0  0  0
 56141  1  0  0  0
 57142  1  0  0  0
 57143  1  0  0  0
 57144  1  0  0  0
 58145  1  0  0  0
 58146  1  0  0  0
 58147  1  0  0  0
 59148  1  0  0  0
 60149  1  0  0  0
 63150  1  0  0  0
 63151  1  0  0  0
 64152  1  0  0  0
 65153  1  0  0  0
 66154  1  0  0  0
 69155  1  0  0  0
 69156  1  0  0  0
 70157  1  0  0  0
 70158  1  0  0  0
 71159  1  0  0  0
 71160  1  0  0  0
 72161  1  0  0  0
 72162  1  0  0  0
 73163  1  0  0  0
 73164  1  0  0  0
 73165  1  0  0  0
 74166  1  0  0  0
 75167  1  0  0  0
 78168  1  0  0  0
 78169  1  0  0  0
 79170  1  0  0  0
 80171  1  0  0  0
 80172  1  0  0  0
 80173  1  0  0  0
 81174  1  0  0  0
 81175  1  0  0  0
 81176  1  0  0  0
 82177  1  0  0  0
 83178  1  0  0  0
 86179  1  0  0  0
 86180  1  0  0  0
 87181  1  0  0  0
 88182  1  0  0  0
M  END
$$$$
