6ets_ligand
  -I-interpret- 

 16 16  0  0  0  0  0  0  0  0999 V2000
   -3.5730  -10.6330  -17.5860 N   0  0  0  0  0
   -3.3200  -11.8810  -17.2190 N   0  0  0  0  0
   -2.1170  -12.1410  -17.5180 N   0  0  0  0  0
   -1.5750  -11.1130  -18.0810 N   0  0  0  0  0
   -2.4920  -10.1720  -18.0680 C   0  0  0  0  0
   -2.2750   -8.8340  -18.6780 C   0  0  0  0  0
   -3.4450   -7.8610  -18.4720 C   0  0  0  0  0
   -4.5580   -8.0650  -18.8360 O   0  0  0  0  0
   -3.0370   -6.7940  -17.8510 N   0  0  0  0  0
   -3.9320   -5.8480  -17.6310 N   0  3  0  0  0
   -2.1604   -8.9814  -19.7519 H   0  0  0  0  0
   -1.4000   -8.3961  -18.1976 H   0  0  0  0  0
   -2.0686   -6.6921  -17.5472 H   0  0  0  0  0
   -3.4898   -5.0707  -17.1405 H   0  0  0  0  0
   -4.3053   -5.5210  -18.5221 H   0  0  0  0  0
   -4.6896   -6.2243  -17.0611 H   0  0  0  0  0
  1  2  4  0  0  0
  1  5  4  0  0  0
  2  3  4  0  0  0
  3  4  4  0  0  0
  4  5  4  0  0  0
  5  6  1  0  0  0
  6  7  1  0  0  0
  7  8  2  0  0  0
  7  9  1  0  0  0
  9 10  1  0  0  0
  6 11  1  0  0  0
  6 12  1  0  0  0
  9 13  1  0  0  0
 10 14  1  0  0  0
 10 15  1  0  0  0
 10 16  1  0  0  0
M  END
$$$$
