### 
### Created by X-TOOL on Mon Aug  2 16:13:18 2021
### 

@<TRIPOS>MOLECULE
6ets_ligand
   17    17     1     0     0
SMALL
GAST_HUCK


@<TRIPOS>ATOM
      1 NAD        -3.5730  -10.6330  -17.5860 N.2       1 I1L        -0.1596
      2 NAB        -3.3200  -11.8810  -17.2190 N.pl3     1 I1L        -0.1147
      3 NAA        -2.1170  -12.1410  -17.5180 N.2       1 I1L        -0.0591
      4 NAC        -1.5750  -11.1130  -18.0810 N.2       1 I1L        -0.1790
      5 CAE        -2.4920  -10.1720  -18.0680 C.2       1 I1L         0.1369
      6 CAF        -2.2750   -8.8340  -18.6780 C.3       1 I1L         0.0997
      7 CAG        -3.4450   -7.8610  -18.4720 C.2       1 I1L         0.2262
      8 OAI        -4.5580   -8.0650  -18.8360 O.2       1 I1L        -0.3894
      9 N          -3.0370   -6.7940  -17.8510 N.am      1 I1L        -0.2563
     10 NAJ        -3.9320   -5.8480  -17.6310 N.4       1 I1L         0.3588
     11 H1         -3.9850  -12.5264  -16.7694 H         1 I1L         0.2884
     12 H2         -2.1208   -8.9667  -19.7590 H         1 I1L         0.0680
     13 H3         -1.3730   -8.3911  -18.2305 H         1 I1L         0.0680
     14 H4         -2.0876   -6.6941  -17.5532 H         1 I1L         0.2381
     15 H5         -3.4960   -5.0792  -17.1462 H         1 I1L         0.2247
     16 H6         -4.6813   -6.2187  -17.0678 H         1 I1L         0.2247
     17 H7         -4.3017   -5.5240  -18.5110 H         1 I1L         0.2247
@<TRIPOS>BOND
     1    1    2 1  
     2    1    5 2  
     3    2    3 1  
     4    3    4 2  
     5    4    5 1  
     6    5    6 1  
     7    6    7 1  
     8    7    8 2  
     9    7    9 am 
    10    9   10 1  
    11    2   11 1  
    12    6   12 1  
    13    6   13 1  
    14    9   14 1  
    15   10   15 1  
    16   10   16 1  
    17   10   17 1  
@<TRIPOS>SUBSTRUCTURE
     1 I1L         1

