1hii_ligand
  -I-interpret- 

 93 94  0  0  0  0  0  0  0  0999 V2000
   18.5420   37.2270   14.9940 C   0  0  0  0  0
   18.3210   35.7700   15.4160 C   0  0  0  0  0
   19.2440   35.1110   15.9210 O   0  0  0  0  0
   17.0980   35.2760   15.2240 N   0  0  0  0  0
   16.7940   33.8680   15.4550 C   0  0  0  0  0
   15.7730   33.7170   16.6220 C   0  0  0  0  0
   15.4020   32.2400   16.8690 C   0  0  0  0  0
   16.3580   34.3410   17.9120 C   0  0  0  0  0
   16.3040   33.1480   14.1830 C   0  0  0  0  0
   15.1630   33.3560   13.7360 O   0  0  0  0  0
   17.1730   32.3130   13.6100 N   0  0  0  0  0
   16.8530   31.5330   12.4160 C   0  0  0  0  0
   17.7130   31.9960   11.2530 C   0  0  0  0  0
   17.6700   33.4940   11.0540 C   0  0  0  0  0
   18.4790   34.3980   11.9090 C   0  0  0  0  0
   18.3810   35.7740   11.6930 C   0  0  0  0  0
   17.5500   36.2990   10.6790 C   0  0  0  0  0
   16.7770   35.4720    9.8500 C   0  0  0  0  0
   16.8120   34.0850    9.9990 C   0  0  0  0  0
   17.0720   30.0150   12.6290 C   0  0  0  0  0
   18.3390   29.7460   13.2150 O   0  0  0  0  0
   16.1060   29.4240   13.6140 C   0  0  0  0  0
   14.8080   29.2300   13.0570 N   0  3  0  0  0
   14.1370   28.4210   14.0490 C   0  0  0  0  0
   12.6830   28.3790   13.6560 C   0  0  0  0  0
   11.7870   28.8730   14.7750 C   0  0  0  0  0
   10.3390   28.7930   14.4040 C   0  0  0  0  0
    9.9760   27.3850   14.0500 C   0  0  0  0  0
   10.8670   26.8390   12.9540 C   0  0  0  0  0
   12.2990   26.9450   13.3510 C   0  0  0  0  0
   14.9400   28.5650   11.7760 N   0  0  0  0  0
   14.2880   28.9960   10.6920 C   0  0  0  0  0
   13.7430   30.1070   10.6230 O   0  0  0  0  0
   14.2410   28.0360    9.5010 C   0  0  0  0  0
   12.9790   27.3040    9.4800 N   0  0  0  0  0
   14.4680   28.8090    8.1670 C   0  0  0  0  0
   15.7200   29.6820    8.2410 C   0  0  0  0  0
   14.6300   27.8130    7.0280 C   0  0  0  0  0
   12.9290   25.9810    9.6210 C   0  0  0  0  0
   13.9430   25.2760    9.7600 O   0  0  0  0  0
   11.5790   25.2880    9.5900 C   0  0  0  0  0
   18.8333   37.8157   15.8639 H   0  0  0  0  0
   19.3310   37.2708   14.2432 H   0  0  0  0  0
   17.6182   37.6269   14.5759 H   0  0  0  0  0
   16.3550   35.8989   14.9072 H   0  0  0  0  0
   17.7256   33.3794   15.7405 H   0  0  0  0  0
   14.8608   34.2431   16.3407 H   0  0  0  0  0
   16.2942   31.6867   17.1621 H   0  0  0  0  0
   14.6590   32.1815   17.6644 H   0  0  0  0  0
   14.9916   31.8120   15.9544 H   0  0  0  0  0
   15.6166   34.2861   18.7092 H   0  0  0  0  0
   17.2519   33.7914   18.2069 H   0  0  0  0  0
   16.6160   35.3834   17.7252 H   0  0  0  0  0
   18.1005   32.2148   14.0230 H   0  0  0  0  0
   15.7967   31.6947   12.2009 H   0  0  0  0  0
   17.3298   31.5273   10.3466 H   0  0  0  0  0
   18.7445   31.7169   11.4682 H   0  0  0  0  0
   19.1322   33.9985   12.6848 H   0  0  0  0  0
   18.9568   36.4558   12.3188 H   0  0  0  0  0
   17.5079   37.3788   10.5361 H   0  0  0  0  0
   16.1435   35.9170    9.0827 H   0  0  0  0  0
   16.2165   33.4445    9.3484 H   0  0  0  0  0
   16.9583   29.5894   11.6320 H   0  0  0  0  0
   18.4413   28.7987   13.3326 H   0  0  0  0  0
   16.0128   30.1167   14.4505 H   0  0  0  0  0
   16.4900   28.4505   13.9187 H   0  0  0  0  0
   14.2867   30.0864   12.8695 H   0  0  0  0  0
   14.2594   28.8450   15.0457 H   0  0  0  0  0
   14.5604   27.4172   14.0848 H   0  0  0  0  0
   12.5516   29.0243   12.7874 H   0  0  0  0  0
   12.0323   29.9160   14.9752 H   0  0  0  0  0
   11.9520   28.2434   15.6493 H   0  0  0  0  0
   10.1538   29.4371   13.5444 H   0  0  0  0  0
    9.7342   29.1162   15.2513 H   0  0  0  0  0
    8.9458   27.3738   13.6942 H   0  0  0  0  0
   10.1005   26.7637   14.9369 H   0  0  0  0  0
   10.7063   27.4168   12.0438 H   0  0  0  0  0
   10.6213   25.7906   12.7848 H   0  0  0  0  0
   12.4548   26.3463   14.2485 H   0  0  0  0  0
   12.9147   26.5898   12.5246 H   0  0  0  0  0
   15.5456   27.7477   11.7000 H   0  0  0  0  0
   15.0461   27.3092    9.6088 H   0  0  0  0  0
   12.1091   27.8213    9.3535 H   0  0  0  0  0
   13.6039   29.4506    7.9943 H   0  0  0  0  0
   15.6096   30.4056    9.0487 H   0  0  0  0  0
   16.5894   29.0528    8.4315 H   0  0  0  0  0
   15.8509   30.2082    7.2954 H   0  0  0  0  0
   15.4876   27.1706    7.2280 H   0  0  0  0  0
   13.7292   27.2044    6.9484 H   0  0  0  0  0
   14.7888   28.3531    6.0946 H   0  0  0  0  0
   11.5522   24.5844    8.7579 H   0  0  0  0  0
   11.4259   24.7514   10.5263 H   0  0  0  0  0
   10.7928   26.0323    9.4636 H   0  0  0  0  0
  1  2  1  0  0  0
  2  4  1  0  0  0
  2  3  2  0  0  0
  4  5  1  0  0  0
  5  9  1  0  0  0
  5  6  1  0  0  0
  6  8  1  0  0  0
  6  7  1  0  0  0
  9 11  1  0  0  0
  9 10  2  0  0  0
 11 12  1  0  0  0
 12 20  1  0  0  0
 12 13  1  0  0  0
 13 14  1  0  0  0
 14 19  4  0  0  0
 14 15  4  0  0  0
 15 16  4  0  0  0
 16 17  4  0  0  0
 17 18  4  0  0  0
 18 19  4  0  0  0
 20 22  1  0  0  0
 20 21  1  0  0  0
 22 23  1  0  0  0
 23 31  1  0  0  0
 23 24  1  0  0  0
 24 25  1  0  0  0
 25 30  1  0  0  0
 25 26  1  0  0  0
 26 27  1  0  0  0
 27 28  1  0  0  0
 28 29  1  0  0  0
 29 30  1  0  0  0
 31 32  1  0  0  0
 32 34  1  0  0  0
 32 33  2  0  0  0
 34 36  1  0  0  0
 34 35  1  0  0  0
 35 39  1  0  0  0
 39 41  1  0  0  0
 39 40  2  0  0  0
 36 38  1  0  0  0
 36 37  1  0  0  0
  1 42  1  0  0  0
  1 43  1  0  0  0
  1 44  1  0  0  0
  4 45  1  0  0  0
  5 46  1  0  0  0
  6 47  1  0  0  0
  7 48  1  0  0  0
  7 49  1  0  0  0
  7 50  1  0  0  0
  8 51  1  0  0  0
  8 52  1  0  0  0
  8 53  1  0  0  0
 11 54  1  0  0  0
 12 55  1  0  0  0
 13 56  1  0  0  0
 13 57  1  0  0  0
 15 58  1  0  0  0
 16 59  1  0  0  0
 17 60  1  0  0  0
 18 61  1  0  0  0
 19 62  1  0  0  0
 20 63  1  0  0  0
 21 64  1  0  0  0
 22 65  1  0  0  0
 22 66  1  0  0  0
 23 67  1  0  0  0
 24 68  1  0  0  0
 24 69  1  0  0  0
 25 70  1  0  0  0
 26 71  1  0  0  0
 26 72  1  0  0  0
 27 73  1  0  0  0
 27 74  1  0  0  0
 28 75  1  0  0  0
 28 76  1  0  0  0
 29 77  1  0  0  0
 29 78  1  0  0  0
 30 79  1  0  0  0
 30 80  1  0  0  0
 31 81  1  0  0  0
 34 82  1  0  0  0
 35 83  1  0  0  0
 36 84  1  0  0  0
 37 85  1  0  0  0
 37 86  1  0  0  0
 37 87  1  0  0  0
 38 88  1  0  0  0
 38 89  1  0  0  0
 38 90  1  0  0  0
 41 91  1  0  0  0
 41 92  1  0  0  0
 41 93  1  0  0  0
M  END
$$$$
