### 
### Created by X-TOOL on Mon Sep 10 21:12:45 2018
### 

@<TRIPOS>MOLECULE
1hii_ligand
   93    94     1     0     0
SMALL
GAST_HUCK


@<TRIPOS>ATOM
      1 C1         18.5420   37.2270   14.9940 C.3       1 C20         0.0258
      2 C2         18.3210   35.7700   15.4160 C.2       1 C20         0.1751
      3 O3         19.2440   35.1110   15.9210 O.2       1 C20        -0.3972
      4 N4         17.0980   35.2760   15.2240 N.am      1 C20        -0.2656
      5 C5         16.7940   33.8680   15.4550 C.3       1 C20         0.1330
      6 C6         15.7730   33.7170   16.6220 C.3       1 C20        -0.0063
      7 C7         15.4020   32.2400   16.8690 C.3       1 C20        -0.0584
      8 C8         16.3580   34.3410   17.9120 C.3       1 C20        -0.0584
      9 C9         16.3040   33.1480   14.1830 C.2       1 C20         0.2024
     10 O10        15.1630   33.3560   13.7360 O.2       1 C20        -0.3945
     11 N11        17.1730   32.3130   13.6100 N.am      1 C20        -0.2773
     12 C12        16.8530   31.5330   12.4160 C.3       1 C20         0.0823
     13 C13        17.7130   31.9960   11.2530 C.3       1 C20         0.0066
     14 C14        17.6700   33.4940   11.0540 C.ar      1 C20        -0.0408
     15 C15        18.4790   34.3980   11.9090 C.ar      1 C20        -0.0603
     16 C16        18.3810   35.7740   11.6930 C.ar      1 C20        -0.0686
     17 C17        17.5500   36.2990   10.6790 C.ar      1 C20        -0.0687
     18 C18        16.7770   35.4720    9.8500 C.ar      1 C20        -0.0686
     19 C19        16.8120   34.0850    9.9990 C.ar      1 C20        -0.0603
     20 C20        17.0720   30.0150   12.6290 C.3       1 C20         0.1201
     21 O21        18.3390   29.7460   13.2150 O.3       1 C20        -0.3840
     22 C22        16.1060   29.4240   13.6140 C.3       1 C20         0.0212
     23 N23        14.8080   29.2300   13.0570 N.4       1 C20         0.3729
     24 C24        14.1370   28.4210   14.0490 C.3       1 C20        -0.0048
     25 C25        12.6830   28.3790   13.6560 C.3       1 C20        -0.0000
     26 C26        11.7870   28.8730   14.7750 C.3       1 C20        -0.0454
     27 C27        10.3390   28.7930   14.4040 C.3       1 C20        -0.0526
     28 C28         9.9760   27.3850   14.0500 C.3       1 C20        -0.0530
     29 C29        10.8670   26.8390   12.9540 C.3       1 C20        -0.0526
     30 C30        12.2990   26.9450   13.3510 C.3       1 C20        -0.0454
     31 N31        14.9400   28.5650   11.7760 N.am      1 C20        -0.2514
     32 C32        14.2880   28.9960   10.6920 C.2       1 C20         0.2389
     33 O33        13.7430   30.1070   10.6230 O.2       1 C20        -0.3898
     34 C34        14.2410   28.0360    9.5010 C.3       1 C20         0.1375
     35 N35        12.9790   27.3040    9.4800 N.am      1 C20        -0.2654
     36 C36        14.4680   28.8090    8.1670 C.3       1 C20        -0.0061
     37 C37        15.7200   29.6820    8.2410 C.3       1 C20        -0.0584
     38 C38        14.6300   27.8130    7.0280 C.3       1 C20        -0.0584
     39 C39        12.9290   25.9810    9.6210 C.2       1 C20         0.1751
     40 O40        13.9430   25.2760    9.7600 O.2       1 C20        -0.3972
     41 C41        11.5790   25.2880    9.5900 C.3       1 C20         0.0258
     42 H1         19.5831   37.5150   15.2017 H         1 C20         0.0467
     43 H2         17.8612   37.8799   15.5598 H         1 C20         0.0467
     44 H3         18.3404   37.3316   13.9177 H         1 C20         0.0467
     45 H4         16.3696   35.8867   14.9134 H         1 C20         0.1883
     46 H5         17.7285   33.3777   15.7653 H         1 C20         0.0802
     47 H6         14.8563   34.2618   16.3521 H         1 C20         0.0343
     48 H7         14.6816   32.1766   17.6978 H         1 C20         0.0234
     49 H8         16.3083   31.6724   17.1268 H         1 C20         0.0234
     50 H9         14.9515   31.8179   15.9586 H         1 C20         0.0234
     51 H10        16.6188   35.3931   17.7247 H         1 C20         0.0234
     52 H11        17.2603   33.7872   18.2107 H         1 C20         0.0234
     53 H12        15.6107   34.2863   18.7173 H         1 C20         0.0234
     54 H13        18.0823   32.2168   14.0149 H         1 C20         0.1857
     55 H14        15.7947   31.7009   12.1672 H         1 C20         0.0606
     56 H15        17.3541   31.5088   10.3344 H         1 C20         0.0449
     57 H16        18.7540   31.6964   11.4443 H         1 C20         0.0449
     58 H17        19.1286   34.0007   12.6805 H         1 C20         0.0557
     59 H18        18.9536   36.4521   12.3154 H         1 C20         0.0599
     60 H19        17.5081   37.3728   10.5369 H         1 C20         0.0559
     61 H20        16.1469   35.9145    9.0869 H         1 C20         0.0599
     62 H21        16.2198   33.4480    9.3520 H         1 C20         0.0557
     63 H22        16.9825   29.5078   11.6570 H         1 C20         0.0672
     64 H23        18.4482   28.8075   13.3137 H         1 C20         0.2101
     65 H24        16.0221   30.1021   14.4760 H         1 C20         0.0848
     66 H25        16.4949   28.4512   13.9492 H         1 C20         0.0848
     67 H26        14.3268   30.1068   12.9317 H         1 C20         0.2299
     68 H27        14.2481   28.8726   15.0458 H         1 C20         0.0824
     69 H28        14.5575   27.4046   14.0579 H         1 C20         0.0824
     70 H29        12.5317   29.0052   12.7644 H         1 C20         0.0352
     71 H30        12.0401   29.9200   14.9979 H         1 C20         0.0270
     72 H31        11.9602   28.2556   15.6687 H         1 C20         0.0270
     73 H32        10.1482   29.4462   13.5397 H         1 C20         0.0265
     74 H33         9.7264   29.1235   15.2557 H         1 C20         0.0265
     75 H34         8.9315   27.3612   13.7060 H         1 C20         0.0265
     76 H35        10.0820   26.7533   14.9442 H         1 C20         0.0265
     77 H36        10.7025   27.4155   12.0317 H         1 C20         0.0265
     78 H37        10.6172   25.7827   12.7757 H         1 C20         0.0265
     79 H38        12.4683   26.3306   14.2476 H         1 C20         0.0270
     80 H39        12.9271   26.5735   12.5279 H         1 C20         0.0270
     81 H40        15.5337   27.7638   11.7014 H         1 C20         0.2383
     82 H41        15.0562   27.3064    9.6156 H         1 C20         0.0804
     83 H42        12.1261   27.8112    9.3560 H         1 C20         0.1883
     84 H43        13.5949   29.4490    7.9719 H         1 C20         0.0343
     85 H44        15.8532   30.2136    7.2872 H         1 C20         0.0234
     86 H45        16.5982   29.0481    8.4332 H         1 C20         0.0234
     87 H46        15.6099   30.4128    9.0558 H         1 C20         0.0234
     88 H47        13.7335   27.1786    6.9654 H         1 C20         0.0234
     89 H48        15.5125   27.1833    7.2143 H         1 C20         0.0234
     90 H49        14.7610   28.3570    6.0810 H         1 C20         0.0234
     91 H50        11.7199   24.2048    9.7198 H         1 C20         0.0467
     92 H51        11.0899   25.4809    8.6238 H         1 C20         0.0467
     93 H52        10.9489   25.6759   10.4039 H         1 C20         0.0467
@<TRIPOS>BOND
     1    1    2 1  
     2    2    4 am 
     3    2    3 2  
     4    4    5 1  
     5    5    9 1  
     6    5    6 1  
     7    6    8 1  
     8    6    7 1  
     9    9   11 am 
    10    9   10 2  
    11   11   12 1  
    12   12   20 1  
    13   12   13 1  
    14   13   14 1  
    15   14   19 ar 
    16   14   15 ar 
    17   15   16 ar 
    18   16   17 ar 
    19   17   18 ar 
    20   18   19 ar 
    21   20   22 1  
    22   20   21 1  
    23   22   23 1  
    24   23   31 1  
    25   23   24 1  
    26   24   25 1  
    27   25   30 1  
    28   25   26 1  
    29   26   27 1  
    30   27   28 1  
    31   28   29 1  
    32   29   30 1  
    33   31   32 am 
    34   32   34 1  
    35   32   33 2  
    36   34   36 1  
    37   34   35 1  
    38   35   39 am 
    39   39   41 1  
    40   39   40 2  
    41   36   38 1  
    42   36   37 1  
    43    1   42 1  
    44    1   43 1  
    45    1   44 1  
    46    4   45 1  
    47    5   46 1  
    48    6   47 1  
    49    7   48 1  
    50    7   49 1  
    51    7   50 1  
    52    8   51 1  
    53    8   52 1  
    54    8   53 1  
    55   11   54 1  
    56   12   55 1  
    57   13   56 1  
    58   13   57 1  
    59   15   58 1  
    60   16   59 1  
    61   17   60 1  
    62   18   61 1  
    63   19   62 1  
    64   20   63 1  
    65   21   64 1  
    66   22   65 1  
    67   22   66 1  
    68   23   67 1  
    69   24   68 1  
    70   24   69 1  
    71   25   70 1  
    72   26   71 1  
    73   26   72 1  
    74   27   73 1  
    75   27   74 1  
    76   28   75 1  
    77   28   76 1  
    78   29   77 1  
    79   29   78 1  
    80   30   79 1  
    81   30   80 1  
    82   31   81 1  
    83   34   82 1  
    84   35   83 1  
    85   36   84 1  
    86   37   85 1  
    87   37   86 1  
    88   37   87 1  
    89   38   88 1  
    90   38   89 1  
    91   38   90 1  
    92   41   91 1  
    93   41   92 1  
    94   41   93 1  
@<TRIPOS>SUBSTRUCTURE
     1 C20         1

