### 
### Created by X-TOOL on Mon Sep 10 21:13:09 2018
### 

@<TRIPOS>MOLECULE
4djy_ligand
   47    50     1     0     0
SMALL
GAST_HUCK


@<TRIPOS>ATOM
      1 C1         22.3990   10.6480   21.7870 C.3       1 0KR         0.1852
      2 N1         22.6830    9.4330   22.6490 N.pl3     1 0KR        -0.2617
      3 C2         22.8520    9.8470   23.9060 C.cat     1 0KR         0.3221
      4 N2         22.8900   11.2620   24.0190 N.am      1 0KR        -0.2168
      5 C3         22.6100   11.8220   22.7940 C.2       1 0KR         0.2168
      6 C4         20.9080   10.7270   21.3440 C.3       1 0KR        -0.0078
      7 O1         22.5650   13.0160   22.5590 O.2       1 0KR        -0.3608
      8 C5         23.4290   10.7860   20.6630 C.ar      1 0KR         0.0090
      9 C6         24.7930   10.7570   20.9620 C.ar      1 0KR        -0.0255
     10 C7         25.7480   10.9310   19.9540 C.ar      1 0KR         0.0186
     11 C8         25.3090   11.1160   18.6380 C.ar      1 0KR        -0.0243
     12 C9         23.9590   11.1550   18.3400 C.ar      1 0KR        -0.0306
     13 C10        23.0220   10.9930   19.3450 C.ar      1 0KR        -0.0341
     14 N3         23.0560    9.0720   24.9750 N.pl3     1 0KR        -0.2546
     15 C11        23.1460   12.0470   25.2320 C.3       1 0KR         0.0238
     16 C12        19.7850   10.2290   22.2140 C.3       1 0KR        -0.0537
     17 C13        20.1580    9.4850   20.9650 C.3       1 0KR        -0.0537
     18 C14        27.2010   11.0000   20.3020 C.ar      1 0KR         0.0170
     19 C15        27.7290   10.1920   21.3140 C.ar      1 0KR        -0.0195
     20 C16        29.0780   10.3030   21.6500 C.ar      1 0KR         0.0523
     21 C17        29.8540   11.2290   20.9470 C.ar      1 0KR         0.0259
     22 C19        28.0710   11.8820   19.6670 C.ar      1 0KR         0.0188
     23 C21        29.6450    9.4810   22.6860 C.1       1 0KR        -0.0580
     24 N5         29.3690   12.0030   19.9720 N.ar      1 0KR        -0.2955
     25 C22        30.1780    8.8420   23.5350 C.1       1 0KR        -0.0969
     26 C23        30.8660    8.0790   24.5790 C.3       1 0KR        -0.0011
     27 H1         22.7362    8.4580   22.3211 H         1 0KR         0.3117
     28 H2         20.7634   11.6479   20.7600 H         1 0KR         0.0249
     29 H3         25.1150   10.5982   21.9848 H         1 0KR         0.0864
     30 H4         26.0362   11.2302   17.8423 H         1 0KR         0.0872
     31 H5         23.6346   11.3127   17.3178 H         1 0KR         0.0702
     32 H6         21.9651   11.0272   19.1067 H         1 0KR         0.0857
     33 H7         23.0261    8.0467   24.8811 H         1 0KR         0.3199
     34 H8         23.2432    9.4998   25.8931 H         1 0KR         0.3199
     35 H9         23.3431   11.3671   26.0739 H         1 0KR         0.0484
     36 H10        22.2666   12.6672   25.4598 H         1 0KR         0.0484
     37 H11        24.0202   12.6951   25.0717 H         1 0KR         0.0484
     38 H12        18.8371   10.7850   22.2611 H         1 0KR         0.0261
     39 H13        20.0042    9.7937   23.2001 H         1 0KR         0.0261
     40 H14        20.6492    8.5033   21.0363 H         1 0KR         0.0261
     41 H15        19.4820    9.4947   20.0973 H         1 0KR         0.0261
     42 H16        27.0938    9.4840   21.8339 H         1 0KR         0.0750
     43 H17        30.9023   11.3239   21.2060 H         1 0KR         0.0830
     44 H18        27.6732   12.5091   18.8774 H         1 0KR         0.0825
     45 H19        30.2273    7.2447   24.9046 H         1 0KR         0.0365
     46 H20        31.0756    8.7363   25.4357 H         1 0KR         0.0365
     47 H21        31.8117    7.6829   24.1807 H         1 0KR         0.0365
@<TRIPOS>BOND
     1    1    2 1  
     2    1    5 1  
     3    1    6 1  
     4    1    8 1  
     5    2    3 ar 
     6    3    4 ar 
     7    3   14 ar 
     8    4    5 am 
     9    4   15 1  
    10    5    7 2  
    11    6   16 1  
    12    6   17 1  
    13    8    9 ar 
    14    8   13 ar 
    15    9   10 ar 
    16   10   11 ar 
    17   10   18 1  
    18   11   12 ar 
    19   12   13 ar 
    20   16   17 1  
    21   18   19 ar 
    22   18   22 ar 
    23   19   20 ar 
    24   20   21 ar 
    25   20   23 1  
    26   21   24 ar 
    27   22   24 ar 
    28   23   25 3  
    29   25   26 1  
    30    2   27 1  
    31    6   28 1  
    32    9   29 1  
    33   11   30 1  
    34   12   31 1  
    35   13   32 1  
    36   14   33 1  
    37   14   34 1  
    38   15   35 1  
    39   15   36 1  
    40   15   37 1  
    41   16   38 1  
    42   16   39 1  
    43   17   40 1  
    44   17   41 1  
    45   19   42 1  
    46   21   43 1  
    47   22   44 1  
    48   26   45 1  
    49   26   46 1  
    50   26   47 1  
@<TRIPOS>SUBSTRUCTURE
     1 0KR         1

