6fuh_ligand
  -I-interpret- 

 51 53  0  0  0  0  0  0  0  0999 V2000
    7.5510    9.7650    1.3260 N   0  0  0  0  0
    9.9250    9.1580    0.9730 C   0  0  0  0  0
    9.8870    9.7620   -0.4360 C   0  0  0  0  0
    8.5190    7.9850    2.7410 C   0  0  0  0  0
    4.1960   10.6430    1.9380 C   0  0  0  0  0
    3.5620    9.3810    2.0230 C   0  0  0  0  0
    3.4760    4.7530    1.1500 C   0  0  0  0  0
    8.2490    8.7150    3.7050 O   0  0  0  0  0
    8.7870    6.7540    2.7540 O   0  0  0  0  0
    8.5170    8.6610    1.3690 C   0  0  0  0  0
   10.4500   10.1460    2.0290 C   0  0  0  0  0
    6.2290    9.6580    1.4990 C   0  0  0  0  0
    5.6820    8.3850    1.5210 N   0  0  0  0  0
    4.3420    8.2490    1.7750 C   0  0  0  0  0
    2.1580    9.3290    2.2680 C   0  0  0  0  0
    1.4870   10.5310    2.5320 C   0  0  0  0  0
    2.0830   11.7860    2.3340 C   0  0  0  0  0
    3.4680   11.8600    2.0500 C   0  0  0  0  0
    5.5080   10.7350    1.7350 N   0  0  0  0  0
    3.7970    7.0400    1.7200 N   0  0  0  0  0
    4.3200    5.7000    1.6040 C   0  0  0  0  0
    5.6320    5.3780    1.9490 C   0  0  0  0  0
    6.0740    4.0670    1.8330 C   0  0  0  0  0
    5.2090    3.0690    1.4380 C   0  0  0  0  0
    3.9320    3.4040    0.9740 C   0  0  0  0  0
    2.8860    2.4220    0.5190 C   0  0  0  0  0
    2.8470    0.9790    0.9260 N   0  3  0  0  0
    7.9213   10.6986    1.1480 H   0  0  0  0  0
   10.6224    8.3208    0.9450 H   0  0  0  0  0
    9.5595    9.0031   -1.1465 H   0  0  0  0  0
    9.1910   10.6007   -0.4517 H   0  0  0  0  0
   10.8836   10.1100   -0.7077 H   0  0  0  0  0
    2.4436    5.0125    0.9157 H   0  0  0  0  0
    8.9550    6.4547    1.8574 H   0  0  0  0  0
    8.2139    7.9085    0.6410 H   0  0  0  0  0
    9.7736   10.9981    2.0955 H   0  0  0  0  0
   10.5040    9.6470    2.9965 H   0  0  0  0  0
   11.4431   10.4904    1.7405 H   0  0  0  0  0
    1.6214    8.3804    2.2504 H   0  0  0  0  0
    0.4637   10.4894    2.9052 H   0  0  0  0  0
    1.4852   12.6952    2.3983 H   0  0  0  0  0
    3.9627   12.8226    1.9208 H   0  0  0  0  0
    2.7786    7.0633    1.7713 H   0  0  0  0  0
    6.3086    6.1532    2.3087 H   0  0  0  0  0
    7.1131    3.8250    2.0560 H   0  0  0  0  0
    5.5180    2.0248    1.4868 H   0  0  0  0  0
    3.0674    2.3615   -0.5541 H   0  0  0  0  0
    1.9754    2.8200    0.9668 H   0  0  0  0  0
    2.0458    0.5249    0.4876 H   0  0  0  0  0
    3.7064    0.5189    0.6257 H   0  0  0  0  0
    2.7624    0.9153    1.9405 H   0  0  0  0  0
  1 10  1  0  0  0
 12  1  1  0  0  0
  2  3  1  0  0  0
 10  2  1  0  0  0
  2 11  1  0  0  0
  4  8  2  0  0  0
  4  9  1  0  0  0
 10  4  1  0  0  0
  6  5  4  0  0  0
  5 18  4  0  0  0
  5 19  4  0  0  0
 14  6  4  0  0  0
  6 15  4  0  0  0
 21  7  4  0  0  0
  7 25  4  0  0  0
 13 12  4  0  0  0
 12 19  4  0  0  0
 14 13  4  0  0  0
 20 14  1  0  0  0
 15 16  4  0  0  0
 16 17  4  0  0  0
 18 17  4  0  0  0
 20 21  1  0  0  0
 21 22  4  0  0  0
 22 23  4  0  0  0
 23 24  4  0  0  0
 24 25  4  0  0  0
 25 26  1  0  0  0
 26 27  1  0  0  0
  1 28  1  0  0  0
  2 29  1  0  0  0
  3 30  1  0  0  0
  3 31  1  0  0  0
  3 32  1  0  0  0
  7 33  1  0  0  0
  9 34  1  0  0  0
 10 35  1  0  0  0
 11 36  1  0  0  0
 11 37  1  0  0  0
 11 38  1  0  0  0
 15 39  1  0  0  0
 16 40  1  0  0  0
 17 41  1  0  0  0
 18 42  1  0  0  0
 20 43  1  0  0  0
 22 44  1  0  0  0
 23 45  1  0  0  0
 24 46  1  0  0  0
 26 47  1  0  0  0
 26 48  1  0  0  0
 27 49  1  0  0  0
 27 50  1  0  0  0
 27 51  1  0  0  0
M  END
$$$$
