### 
### Created by X-TOOL on Wed Jan  1 15:39:34 2020
### 

@<TRIPOS>MOLECULE
6fuh_ligand
   50    52     1     0     0
SMALL
GAST_HUCK


@<TRIPOS>ATOM
      1 N1          7.5510    9.7650    1.3260 N.pl3     1 E88        -0.2778
      2 C5          9.9250    9.1580    0.9730 C.3       1 E88        -0.0113
      3 C7          9.8870    9.7620   -0.4360 C.3       1 E88        -0.0590
      4 C15         8.5190    7.9850    2.7410 C.2       1 E88         0.0608
      5 C21         4.1960   10.6430    1.9380 C.ar      1 E88         0.0268
      6 C22         3.5620    9.3810    2.0230 C.ar      1 E88         0.0486
      7 C28         3.4760    4.7530    1.1500 C.ar      1 E88        -0.0308
      8 O17         8.2490    8.7150    3.7050 O.co2     1 E88        -0.5665
      9 O16         8.7870    6.7540    2.7540 O.co2     1 E88        -0.5665
     10 C3          8.5170    8.6610    1.3690 C.3       1 E88         0.0967
     11 C11        10.4500   10.1460    2.0290 C.3       1 E88        -0.0590
     12 C19         6.2290    9.6580    1.4990 C.ar      1 E88         0.1642
     13 N24         5.6820    8.3850    1.5210 N.ar      1 E88        -0.2339
     14 C23         4.3420    8.2490    1.7750 C.ar      1 E88         0.1546
     15 C43         2.1580    9.3290    2.2680 C.ar      1 E88        -0.0450
     16 C45         1.4870   10.5310    2.5320 C.ar      1 E88        -0.0587
     17 C47         2.0830   11.7860    2.3340 C.ar      1 E88        -0.0603
     18 C49         3.4680   11.8600    2.0500 C.ar      1 E88        -0.0477
     19 N20         5.5080   10.7350    1.7350 N.ar      1 E88        -0.2917
     20 N25         3.7970    7.0400    1.7200 N.pl3     1 E88        -0.2481
     21 C27         4.3200    5.7000    1.6040 C.ar      1 E88         0.0622
     22 C35         5.6320    5.3780    1.9490 C.ar      1 E88        -0.0436
     23 C33         6.0740    4.0670    1.8330 C.ar      1 E88        -0.0769
     24 C31         5.2090    3.0690    1.4380 C.ar      1 E88        -0.0661
     25 C30         3.9320    3.4040    0.9740 C.ar      1 E88        -0.0076
     26 C37         2.8860    2.4220    0.5190 C.3       1 E88        -0.0041
     27 N40         2.8470    0.9790    0.9260 N.4       1 E88         0.2307
     28 H1          7.9250   10.7077    1.1463 H         1 E88         0.1891
     29 H2         10.6055    8.2940    0.9518 H         1 E88         0.0336
     30 H3         10.8922   10.1136   -0.7114 H         1 E88         0.0234
     31 H4          9.1849   10.6086   -0.4532 H         1 E88         0.0234
     32 H5          9.5567    8.9970   -1.1541 H         1 E88         0.0234
     33 H6          2.4493    5.0110    0.9170 H         1 E88         0.0481
     34 H7          8.2055    7.9102    0.6279 H         1 E88         0.0734
     35 H8         11.4523   10.4943    1.7390 H         1 E88         0.0234
     36 H9         10.5050    9.6436    3.0060 H         1 E88         0.0234
     37 H10         9.7682   11.0065    2.0971 H         1 E88         0.0234
     38 H11         1.6243    8.3856    2.2505 H         1 E88         0.0675
     39 H12         0.4693   10.4896    2.9031 H         1 E88         0.0592
     40 H13         1.4885   12.6902    2.3979 H         1 E88         0.0661
     41 H14         3.9600   12.8173    1.9215 H         1 E88         0.0589
     42 H15         2.7686    7.0635    1.7718 H         1 E88         0.2227
     43 H16         6.3049    6.1489    2.3067 H         1 E88         0.0487
     44 H17         7.1074    3.8263    2.0548 H         1 E88         0.0572
     45 H18         5.5163    2.0306    1.4865 H         1 E88         0.0469
     46 H19         2.9400    2.4189   -0.5797 H         1 E88         0.0977
     47 H20         1.9224    2.8461    0.8376 H         1 E88         0.0977
     48 H21         2.0555    0.5292    0.4933 H         1 E88         0.2008
     49 H22         2.7634    0.9147    1.9285 H         1 E88         0.2008
     50 H23         3.6958    0.5232    0.6297 H         1 E88         0.2008
@<TRIPOS>BOND
     1    1   10 1  
     2   12    1 1  
     3    2    3 1  
     4   10    2 1  
     5    2   11 1  
     6    4    8 ar 
     7    4    9 ar 
     8   10    4 1  
     9    6    5 ar 
    10    5   18 ar 
    11    5   19 ar 
    12   14    6 ar 
    13    6   15 ar 
    14   21    7 ar 
    15    7   25 ar 
    16   13   12 ar 
    17   12   19 ar 
    18   14   13 ar 
    19   20   14 1  
    20   15   16 ar 
    21   16   17 ar 
    22   18   17 ar 
    23   20   21 1  
    24   21   22 ar 
    25   22   23 ar 
    26   23   24 ar 
    27   24   25 ar 
    28   25   26 1  
    29   26   27 1  
    30    1   28 1  
    31    2   29 1  
    32    3   30 1  
    33    3   31 1  
    34    3   32 1  
    35    7   33 1  
    36   10   34 1  
    37   11   35 1  
    38   11   36 1  
    39   11   37 1  
    40   15   38 1  
    41   16   39 1  
    42   17   40 1  
    43   18   41 1  
    44   20   42 1  
    45   22   43 1  
    46   23   44 1  
    47   24   45 1  
    48   26   46 1  
    49   26   47 1  
    50   27   48 1  
    51   27   49 1  
    52   27   50 1  
@<TRIPOS>SUBSTRUCTURE
     1 E88         1

