### 
### Created by X-TOOL on Wed Jan  1 15:39:35 2020
### 

@<TRIPOS>MOLECULE
5oha_ligand
   11    11     1     0     0
SMALL
GAST_HUCK


@<TRIPOS>ATOM
      1 O7         21.4400   16.1140   -7.4920 O.2       1 9UW        -0.3784
      2 C7         22.4800   16.8730   -7.5730 C.2       1 9UW         0.2208
      3 C1         22.6980   18.0850   -6.7140 C.3       1 9UW         0.0715
      4 N2         24.0280   18.5070   -7.2120 N.2       1 9UW        -0.3476
      5 C8         24.3610   17.5490   -8.1030 C.2       1 9UW         0.1809
      6 N1         23.4880   16.5250   -8.4070 N.am      1 9UW        -0.1901
      7 S8         25.9170   17.6480   -8.9750 S.3       1 9UW        -0.0465
      8 H1         22.7233   17.8298   -5.6443 H         1 9UW         0.0539
      9 H2         21.9319   18.8546   -6.8894 H         1 9UW         0.0539
     10 H3         23.5734   15.7610   -9.0465 H         1 9UW         0.2449
     11 H4         26.4376   18.4442   -8.6417 H         1 9UW         0.1366
@<TRIPOS>BOND
     1    1    2 2  
     2    2    3 1  
     3    2    6 am 
     4    3    4 1  
     5    4    5 2  
     6    5    6 1  
     7    5    7 1  
     8    3    8 1  
     9    3    9 1  
    10    6   10 1  
    11    7   11 1  
@<TRIPOS>SUBSTRUCTURE
     1 9UW         1

