5oha_ligand
  -I-interpret- 

 11 11  0  0  0  0  0  0  0  0999 V2000
   21.4400   16.1140   -7.4920 O   0  0  0  0  0
   22.4800   16.8730   -7.5730 C   0  0  0  0  0
   22.6980   18.0850   -6.7140 C   0  0  0  0  0
   24.0280   18.5070   -7.2120 N   0  0  0  0  0
   24.3610   17.5490   -8.1030 C   0  0  0  0  0
   23.4880   16.5250   -8.4070 N   0  0  0  0  0
   25.9170   17.6480   -8.9750 S   0  0  0  0  0
   22.6548   17.8945   -5.6416 H   0  0  0  0  0
   21.9209   18.8449   -6.7964 H   0  0  0  0  0
   23.5752   15.7457   -9.0593 H   0  0  0  0  0
   26.0316   16.6062   -9.7939 H   0  0  0  0  0
  1  2  2  0  0  0
  2  3  1  0  0  0
  2  6  1  0  0  0
  3  4  1  0  0  0
  4  5  2  0  0  0
  5  6  1  0  0  0
  5  7  1  0  0  0
  3  8  1  0  0  0
  3  9  1  0  0  0
  6 10  1  0  0  0
  7 11  1  0  0  0
M  END
$$$$
