1ii5_ligand
  -I-interpret- 

 20 19  0  0  0  0  0  0  0  0999 V2000
   88.2610   -7.6600   -9.9900 N   0  3  0  0  0
   87.7440   -7.2760  -11.3340 C   0  0  0  0  0
   88.4740   -6.0300  -11.8110 C   0  0  0  0  0
   88.9690   -5.2920  -10.9430 O   0  0  0  0  0
   86.2340   -7.0120  -11.2670 C   0  0  0  0  0
   85.4370   -8.1940  -10.7460 C   0  0  0  0  0
   83.9370   -7.9440  -10.7070 C   0  0  0  0  0
   83.4250   -7.1400  -11.5200 O   0  0  0  0  0
   83.2600   -8.5670   -9.8620 O   0  0  0  0  0
   88.5430   -5.8010  -13.0330 O   0  0  0  0  0
   87.7741   -8.4956   -9.6658 H   0  0  0  0  0
   89.2610   -7.8508  -10.0535 H   0  0  0  0  0
   88.1005   -6.8955   -9.3341 H   0  0  0  0  0
   87.9187   -8.0913  -12.0361 H   0  0  0  0  0
   85.8914   -6.8065  -12.2812 H   0  0  0  0  0
   86.0763   -6.1811  -10.5794 H   0  0  0  0  0
   85.7641   -8.3850   -9.7239 H   0  0  0  0  0
   85.6123   -9.0310  -11.4219 H   0  0  0  0  0
   84.1125   -6.7703  -12.0787 H   0  0  0  0  0
   88.0937   -6.4997  -13.5142 H   0  0  0  0  0
  2  1  1  0  0  0
  2  5  1  0  0  0
  2  3  1  0  0  0
  3  4  2  0  0  0
  3 10  1  0  0  0
  5  6  1  0  0  0
  6  7  1  0  0  0
  7  9  2  0  0  0
  7  8  1  0  0  0
  1 11  1  0  0  0
  1 12  1  0  0  0
  1 13  1  0  0  0
  2 14  1  0  0  0
  5 15  1  0  0  0
  5 16  1  0  0  0
  6 17  1  0  0  0
  6 18  1  0  0  0
  8 19  1  0  0  0
 10 20  1  0  0  0
M  END
$$$$
