### 
### Created by X-TOOL on Mon Sep 10 21:12:48 2018
### 

@<TRIPOS>MOLECULE
1ii5_ligand
   18    17     1     0     0
SMALL
GAST_HUCK


@<TRIPOS>ATOM
      1 N          88.2610   -7.6600   -9.9900 N.4       1 GLU         0.2328
      2 CA         87.7440   -7.2760  -11.3340 C.3       1 GLU         0.0298
      3 C          88.4740   -6.0300  -11.8110 C.2       1 GLU         0.0845
      4 O          88.9690   -5.2920  -10.9430 O.co2     1 GLU        -0.5643
      5 CB         86.2340   -7.0120  -11.2670 C.3       1 GLU         0.0139
      6 CG         85.4370   -8.1940  -10.7460 C.3       1 GLU         0.0069
      7 CD         83.9370   -7.9440  -10.7070 C.2       1 GLU         0.0351
      8 OE1        83.4250   -7.1400  -11.5200 O.co2     1 GLU        -0.5690
      9 OE2        83.2600   -8.5670   -9.8620 O.co2     1 GLU        -0.5690
     10 OXT        88.5430   -5.8010  -13.0330 O.co2     1 GLU        -0.5643
     11 H1         87.7805   -8.4858   -9.6686 H         1 GLU         0.2010
     12 H2         88.1029   -6.9052   -9.3409 H         1 GLU         0.2010
     13 H3         89.2492   -7.8489  -10.0515 H         1 GLU         0.2010
     14 H4         87.9318   -8.0974  -12.0411 H         1 GLU         0.1025
     15 H5         85.8772   -6.7701  -12.2790 H         1 GLU         0.0356
     16 H6         86.0595   -6.1536  -10.6017 H         1 GLU         0.0356
     17 H7         85.7787   -8.4218   -9.7255 H         1 GLU         0.0433
     18 H8         85.6291   -9.0584  -11.3986 H         1 GLU         0.0433
@<TRIPOS>BOND
     1    2    1 1  
     2    2    5 1  
     3    2    3 1  
     4    3    4 ar 
     5    3   10 ar 
     6    5    6 1  
     7    6    7 1  
     8    7    9 ar 
     9    7    8 ar 
    10    1   11 1  
    11    1   12 1  
    12    1   13 1  
    13    2   14 1  
    14    5   15 1  
    15    5   16 1  
    16    6   17 1  
    17    6   18 1  
@<TRIPOS>SUBSTRUCTURE
     1 GLU         1

