1bt6_ligand
     RDKit          3D

182182  0  0  0  0  0  0  0  0999 V2000
    2.0366  -23.6703  -22.2884 C   0  0  0  0  0  0  0  0  0  0  0  0
    1.5239  -23.0896  -21.3351 O   0  0  0  0  0  0  0  0  0  0  0  0
    1.2913  -23.8304  -23.5914 C   0  0  0  0  0  0  0  0  0  0  0  0
    3.2215  -24.2146  -22.5293 N   0  0  0  0  0  0  0  0  0  0  0  0
    3.4825  -25.2130  -23.4797 C   0  0  2  0  0  0  0  0  0  0  0  0
    2.6118  -26.3954  -23.0145 C   0  0  0  0  0  0  0  0  0  0  0  0
    1.3887  -26.3307  -22.8094 O   0  0  0  0  0  0  0  0  0  0  0  0
    4.9343  -25.5543  -23.7695 C   0  0  0  0  0  0  0  0  0  0  0  0
    5.1757  -25.1108  -25.1049 O   0  0  0  0  0  0  0  0  0  0  0  0
    3.3123  -27.4583  -22.5826 N   0  0  0  0  0  0  0  0  0  0  0  0
    4.2991  -27.2016  -21.4949 C   0  0  2  0  0  0  0  0  0  0  0  0
    3.8116  -26.2286  -20.4500 C   0  0  0  0  0  0  0  0  0  0  0  0
    2.7873  -26.2822  -19.4725 O   0  0  0  0  0  0  0  0  0  0  0  0
    5.6806  -27.0872  -21.9991 C   0  0  2  0  0  0  0  0  0  0  0  0
    5.9611  -26.2356  -23.0456 O   0  0  0  0  0  0  0  0  0  0  0  0
    6.4893  -28.3403  -22.0076 C   0  0  0  0  0  0  0  0  0  0  0  0
    4.4858  -25.0888  -20.1559 N   0  0  0  0  0  0  0  0  0  0  0  0
    3.7518  -23.8846  -19.7229 C   0  0  2  0  0  0  0  0  0  0  0  0
    2.2810  -24.2050  -19.6683 C   0  0  0  0  0  0  0  0  0  0  0  0
    1.7560  -24.6026  -18.6275 O   0  0  0  0  0  0  0  0  0  0  0  0
    4.0223  -22.6320  -20.6507 C   0  0  1  0  0  0  0  0  0  0  0  0
    2.8087  -22.0410  -21.3002 C   0  0  0  0  0  0  0  0  0  0  0  0
    4.6743  -21.5486  -19.7944 C   0  0  0  0  0  0  0  0  0  0  0  0
    1.6177  -24.0358  -20.8105 N   0  0  0  0  0  0  0  0  0  0  0  0
    0.2221  -23.5652  -20.8123 C   0  0  2  0  0  0  0  0  0  0  0  0
   -0.3513  -23.6282  -19.4067 C   0  0  0  0  0  0  0  0  0  0  0  0
    0.1948  -22.9989  -18.5084 O   0  0  0  0  0  0  0  0  0  0  0  0
   -0.5990  -24.3328  -21.8311 C   0  0  0  0  0  0  0  0  0  0  0  0
   -1.1804  -25.5687  -21.2137 C   0  0  0  0  0  0  0  0  0  0  0  0
   -1.8620  -26.5245  -21.8987 N   0  0  0  0  0  0  0  0  0  0  0  0
   -1.1951  -25.9790  -19.9112 C   0  0  0  0  0  0  0  0  0  0  0  0
   -2.3351  -27.4411  -21.1066 C   0  0  0  0  0  0  0  0  0  0  0  0
   -1.9094  -27.1447  -19.8968 N   0  0  0  0  0  0  0  0  0  0  0  0
   -1.3488  -24.4413  -19.1267 N   0  0  0  0  0  0  0  0  0  0  0  0
   -2.3923  -24.1795  -18.1644 C   0  0  2  0  0  0  0  0  0  0  0  0
   -2.4076  -22.7291  -17.7609 C   0  0  0  0  0  0  0  0  0  0  0  0
   -3.0777  -21.9427  -18.4498 O   0  0  0  0  0  0  0  0  0  0  0  0
   -2.2658  -25.0215  -16.9011 C   0  0  0  0  0  0  0  0  0  0  0  0
   -1.6549  -26.4116  -17.1590 C   0  0  0  0  0  0  0  0  0  0  0  0
   -2.6824  -27.4019  -17.7193 C   0  0  0  0  0  0  0  0  0  0  0  0
   -3.0834  -27.1781  -18.8881 O   0  0  0  0  0  1  0  0  0  0  0  0
   -3.0566  -28.3715  -17.0174 O   0  0  0  0  0  0  0  0  0  0  0  0
   -1.6925  -22.3592  -16.6856 N   0  0  0  0  0  0  0  0  0  0  0  0
   -1.0330  -21.0319  -16.8029 C   0  0  2  0  0  0  0  0  0  0  0  0
   -1.1678  -20.3254  -15.4722 C   0  0  0  0  0  0  0  0  0  0  0  0
   -1.4427  -20.9999  -14.4783 O   0  0  0  0  0  0  0  0  0  0  0  0
   -1.5763  -20.1915  -17.9626 C   0  0  2  0  0  0  0  0  0  0  0  0
   -1.2807  -20.8916  -19.2591 C   0  0  0  0  0  0  0  0  0  0  0  0
   -1.0831  -18.7583  -17.9256 C   0  0  0  0  0  0  0  0  0  0  0  0
   -1.3950  -20.1844  -20.5634 C   0  0  0  0  0  0  0  0  0  0  0  0
   -1.0241  -18.9866  -15.3723 N   0  0  0  0  0  0  0  0  0  0  0  0
   -1.7252  -18.3349  -14.2501 C   0  0  2  0  0  0  0  0  0  0  0  0
   -3.1833  -18.0650  -14.5472 C   0  0  0  0  0  0  0  0  0  0  0  0
   -3.9047  -17.4633  -13.7654 O   0  0  0  0  0  0  0  0  0  0  0  0
   -0.9840  -17.1539  -13.6475 C   0  0  0  0  0  0  0  0  0  0  0  0
    0.1617  -16.6545  -14.5969 C   0  0  1  0  0  0  0  0  0  0  0  0
    1.0608  -15.6964  -13.8599 C   0  0  0  0  0  0  0  0  0  0  0  0
    0.8795  -17.8267  -15.1977 C   0  0  0  0  0  0  0  0  0  0  0  0
   -3.6076  -18.5674  -15.7107 N   0  0  0  0  0  0  0  0  0  0  0  0
   -4.9450  -18.3766  -16.2660 C   0  0  2  0  0  0  0  0  0  0  0  0
   -5.9449  -17.9123  -15.2308 C   0  0  0  0  0  0  0  0  0  0  0  0
   -6.8909  -18.6540  -15.0023 O   0  0  0  0  0  0  0  0  0  0  0  0
   -5.3953  -19.6341  -17.0128 C   0  0  0  0  0  0  0  0  0  0  0  0
   -4.9974  -19.3798  -18.3925 O   0  0  0  0  0  0  0  0  0  0  0  0
   -5.8711  -16.7204  -14.6788 N   0  0  0  0  0  0  0  0  0  0  0  0
   -6.7462  -16.2297  -13.6250 C   0  0  2  0  0  0  0  0  0  0  0  0
   -6.6321  -17.0794  -12.3474 C   0  0  0  0  0  0  0  0  0  0  0  0
   -5.7747  -16.8838  -11.4776 O   0  0  0  0  0  0  0  0  0  0  0  0
   -8.2239  -16.2499  -14.0343 C   0  0  0  0  0  0  0  0  0  0  0  0
   -8.9972  -14.9897  -13.7278 C   0  0  0  0  0  0  0  0  0  0  0  0
  -10.0045  -14.6995  -14.8336 C   0  0  0  0  0  0  0  0  0  0  0  0
  -11.4298  -14.7636  -14.2969 C   0  0  0  0  0  0  0  0  0  0  0  0
  -12.4156  -14.3055  -15.3282 N   0  0  0  0  0  4  0  0  0  0  0  0
   -7.5592  -18.0112  -12.1623 N   0  0  0  0  0  0  0  0  0  0  0  0
   -7.5409  -18.8706  -10.9720 C   0  0  2  0  0  0  0  0  0  0  0  0
   -6.3137  -18.4116  -10.1738 C   0  0  0  0  0  0  0  0  0  0  0  0
   -6.2744  -18.5576   -8.9750 O   0  0  0  0  0  0  0  0  0  0  0  0
   -7.4721  -20.3357  -11.2808 C   0  0  0  0  0  0  0  0  0  0  0  0
   -8.4543  -20.9870  -12.2356 C   0  0  1  0  0  0  0  0  0  0  0  0
   -7.7590  -22.0726  -13.0494 C   0  0  0  0  0  0  0  0  0  0  0  0
   -9.6826  -21.5186  -11.5293 C   0  0  0  0  0  0  0  0  0  0  0  0
   -5.3822  -17.8314  -10.9298 N   0  0  0  0  0  0  0  0  0  0  0  0
   -4.8250  -16.5120  -10.7518 C   0  0  2  0  0  0  0  0  0  0  0  0
   -3.8434  -16.0938  -11.8475 C   0  0  0  0  0  0  0  0  0  0  0  0
   -2.8307  -16.8280  -12.0693 O   0  0  0  0  0  0  0  0  0  0  0  0
   -4.1253  -16.4431   -9.3762 C   0  0  0  0  0  0  0  0  0  0  0  0
   -4.7937  -17.3113   -8.4762 O   0  0  0  0  0  0  0  0  0  0  0  0
   -4.0457  -14.9847  -12.5531 O   0  0  0  0  0  0  0  0  0  0  0  0
    1.8806  -23.3873  -24.4078 H   0  0  0  0  0  0  0  0  0  0  0  0
    0.3190  -23.3207  -23.5227 H   0  0  0  0  0  0  0  0  0  0  0  0
    1.1313  -24.8997  -23.7934 H   0  0  0  0  0  0  0  0  0  0  0  0
    3.9949  -23.8854  -21.9874 H   0  0  0  0  0  0  0  0  0  0  0  0
    3.0780  -24.8589  -24.4394 H   0  0  0  0  0  0  0  0  0  0  0  0
    5.0964  -26.6394  -23.6905 H   0  0  0  0  0  0  0  0  0  0  0  0
    5.5991  -25.0320  -23.0658 H   0  0  0  0  0  0  0  0  0  0  0  0
    5.0696  -25.8404  -25.7039 H   0  0  0  0  0  0  0  0  0  0  0  0
    3.1789  -28.3708  -22.9693 H   0  0  0  0  0  0  0  0  0  0  0  0
    4.3252  -28.1503  -20.9388 H   0  0  0  0  0  0  0  0  0  0  0  0
    6.1441  -26.5397  -21.1652 H   0  0  0  0  0  0  0  0  0  0  0  0
    5.1762  -26.1040  -23.5645 H   0  0  0  0  0  0  0  0  0  0  0  0
    7.1594  -28.3383  -22.8799 H   0  0  0  0  0  0  0  0  0  0  0  0
    5.8178  -29.2098  -22.0631 H   0  0  0  0  0  0  0  0  0  0  0  0
    7.0872  -28.3970  -21.0861 H   0  0  0  0  0  0  0  0  0  0  0  0
    5.4826  -25.0648  -20.2328 H   0  0  0  0  0  0  0  0  0  0  0  0
    4.0893  -23.6266  -18.7083 H   0  0  0  0  0  0  0  0  0  0  0  0
    4.7173  -22.9404  -21.4457 H   0  0  0  0  0  0  0  0  0  0  0  0
    2.9407  -20.9538  -21.4033 H   0  0  0  0  0  0  0  0  0  0  0  0
    1.9242  -22.2456  -20.6792 H   0  0  0  0  0  0  0  0  0  0  0  0
    2.6701  -22.4894  -22.2950 H   0  0  0  0  0  0  0  0  0  0  0  0
    5.1565  -20.8061  -20.4471 H   0  0  0  0  0  0  0  0  0  0  0  0
    5.4297  -22.0052  -19.1379 H   0  0  0  0  0  0  0  0  0  0  0  0
    3.9064  -21.0542  -19.1813 H   0  0  0  0  0  0  0  0  0  0  0  0
    2.0734  -24.2309  -21.6789 H   0  0  0  0  0  0  0  0  0  0  0  0
    0.2211  -22.5093  -21.1206 H   0  0  0  0  0  0  0  0  0  0  0  0
    0.0466  -24.6190  -22.6746 H   0  0  0  0  0  0  0  0  0  0  0  0
   -1.4154  -23.6918  -22.1952 H   0  0  0  0  0  0  0  0  0  0  0  0
   -1.9885  -26.5230  -22.9209 H   0  0  0  0  0  0  0  0  0  0  0  0
   -0.7335  -25.4807  -19.0601 H   0  0  0  0  0  0  0  0  0  0  0  0
   -2.9601  -28.2871  -21.3886 H   0  0  0  0  0  0  0  0  0  0  0  0
   -1.3863  -25.3100  -19.6205 H   0  0  0  0  0  0  0  0  0  0  0  0
   -3.3533  -24.4203  -18.6425 H   0  0  0  0  0  0  0  0  0  0  0  0
   -3.2679  -25.1547  -16.4675 H   0  0  0  0  0  0  0  0  0  0  0  0
   -1.6250  -24.4850  -16.1857 H   0  0  0  0  0  0  0  0  0  0  0  0
   -1.2624  -26.8073  -16.2107 H   0  0  0  0  0  0  0  0  0  0  0  0
   -0.8323  -26.3082  -17.8818 H   0  0  0  0  0  0  0  0  0  0  0  0
   -1.6102  -22.9318  -15.8699 H   0  0  0  0  0  0  0  0  0  0  0  0
    0.0368  -21.1994  -16.9961 H   0  0  0  0  0  0  0  0  0  0  0  0
   -2.6703  -20.1502  -17.8557 H   0  0  0  0  0  0  0  0  0  0  0  0
   -1.9637  -21.7523  -19.3108 H   0  0  0  0  0  0  0  0  0  0  0  0
   -0.2432  -21.2504  -19.1896 H   0  0  0  0  0  0  0  0  0  0  0  0
   -0.0074  -18.7347  -18.1542 H   0  0  0  0  0  0  0  0  0  0  0  0
   -1.2545  -18.3373  -16.9240 H   0  0  0  0  0  0  0  0  0  0  0  0
   -1.6296  -18.1631  -18.6720 H   0  0  0  0  0  0  0  0  0  0  0  0
   -0.4174  -19.7616  -20.8382 H   0  0  0  0  0  0  0  0  0  0  0  0
   -2.1340  -19.3741  -20.4776 H   0  0  0  0  0  0  0  0  0  0  0  0
   -1.7182  -20.8948  -21.3386 H   0  0  0  0  0  0  0  0  0  0  0  0
   -0.4726  -18.4654  -16.0236 H   0  0  0  0  0  0  0  0  0  0  0  0
   -1.7364  -19.0900  -13.4503 H   0  0  0  0  0  0  0  0  0  0  0  0
   -0.5449  -17.4591  -12.6862 H   0  0  0  0  0  0  0  0  0  0  0  0
   -1.6953  -16.3316  -13.4812 H   0  0  0  0  0  0  0  0  0  0  0  0
   -0.3008  -16.0967  -15.4244 H   0  0  0  0  0  0  0  0  0  0  0  0
    2.1082  -16.0103  -13.9804 H   0  0  0  0  0  0  0  0  0  0  0  0
    0.7989  -15.6958  -12.7916 H   0  0  0  0  0  0  0  0  0  0  0  0
    0.9321  -14.6838  -14.2697 H   0  0  0  0  0  0  0  0  0  0  0  0
    0.2006  -18.3638  -15.8764 H   0  0  0  0  0  0  0  0  0  0  0  0
    1.2092  -18.5047  -14.3967 H   0  0  0  0  0  0  0  0  0  0  0  0
    1.7550  -17.4712  -15.7607 H   0  0  0  0  0  0  0  0  0  0  0  0
   -2.9606  -19.1152  -16.2411 H   0  0  0  0  0  0  0  0  0  0  0  0
   -4.8716  -17.5710  -17.0114 H   0  0  0  0  0  0  0  0  0  0  0  0
   -6.4847  -19.7660  -16.9370 H   0  0  0  0  0  0  0  0  0  0  0  0
   -4.8894  -20.5272  -16.6173 H   0  0  0  0  0  0  0  0  0  0  0  0
   -4.4152  -20.0709  -18.6855 H   0  0  0  0  0  0  0  0  0  0  0  0
   -5.1573  -16.1030  -15.0096 H   0  0  0  0  0  0  0  0  0  0  0  0
   -6.4532  -15.1945  -13.3959 H   0  0  0  0  0  0  0  0  0  0  0  0
   -8.7108  -17.0836  -13.5071 H   0  0  0  0  0  0  0  0  0  0  0  0
   -8.2734  -16.4233  -15.1194 H   0  0  0  0  0  0  0  0  0  0  0  0
   -8.2964  -14.1457  -13.6461 H   0  0  0  0  0  0  0  0  0  0  0  0
   -9.5321  -15.1157  -12.7749 H   0  0  0  0  0  0  0  0  0  0  0  0
   -9.8865  -15.4450  -15.6338 H   0  0  0  0  0  0  0  0  0  0  0  0
   -9.8163  -13.6942  -15.2384 H   0  0  0  0  0  0  0  0  0  0  0  0
  -11.5095  -14.1162  -13.4111 H   0  0  0  0  0  0  0  0  0  0  0  0
  -11.6611  -15.8013  -14.0148 H   0  0  0  0  0  0  0  0  0  0  0  0
  -13.3465  -14.3439  -14.9434 H   0  0  0  0  0  0  0  0  0  0  0  0
  -12.3607  -14.9062  -16.1357 H   0  0  0  0  0  0  0  0  0  0  0  0
  -12.2029  -13.3581  -15.5989 H   0  0  0  0  0  0  0  0  0  0  0  0
   -8.2812  -18.1296  -12.8439 H   0  0  0  0  0  0  0  0  0  0  0  0
   -8.4532  -18.6916  -10.3841 H   0  0  0  0  0  0  0  0  0  0  0  0
   -7.5766  -20.8615  -10.3203 H   0  0  0  0  0  0  0  0  0  0  0  0
   -6.4689  -20.5203  -11.6926 H   0  0  0  0  0  0  0  0  0  0  0  0
   -8.7942  -20.2116  -12.9378 H   0  0  0  0  0  0  0  0  0  0  0  0
   -8.5142  -22.6897  -13.5582 H   0  0  0  0  0  0  0  0  0  0  0  0
   -7.1590  -22.7057  -12.3793 H   0  0  0  0  0  0  0  0  0  0  0  0
   -7.1023  -21.6056  -13.7981 H   0  0  0  0  0  0  0  0  0  0  0  0
  -10.0812  -20.7460  -10.8553 H   0  0  0  0  0  0  0  0  0  0  0  0
   -9.4124  -22.4107  -10.9452 H   0  0  0  0  0  0  0  0  0  0  0  0
  -10.4471  -21.7855  -12.2738 H   0  0  0  0  0  0  0  0  0  0  0  0
   -5.0331  -18.3653  -11.6999 H   0  0  0  0  0  0  0  0  0  0  0  0
   -5.6576  -15.7932  -10.7592 H   0  0  0  0  0  0  0  0  0  0  0  0
   -4.1649  -15.4127   -8.9930 H   0  0  0  0  0  0  0  0  0  0  0  0
   -3.0758  -16.7557   -9.4798 H   0  0  0  0  0  0  0  0  0  0  0  0
   -5.7316  -17.1767   -8.5458 H   0  0  0  0  0  0  0  0  0  0  0  0
   -3.3190  -14.8542  -13.1510 H   0  0  0  0  0  0  0  0  0  0  0  0
  1  2  2  0
  1  3  1  0
  5  4  1  0
  5  8  1  0
  6  5  1  0
  6  7  2  0
  8  9  1  0
  4  1  1  0
 11 10  1  0
 11 14  1  0
 12 11  1  0
 12 13  2  0
 14 16  1  0
 14 15  1  0
 10  6  1  0
 18 17  1  0
 18 21  1  0
 19 18  1  0
 19 20  2  0
 21 23  1  0
 21 22  1  0
 17 12  1  0
 25 24  1  0
 25 28  1  0
 26 25  1  0
 26 27  2  0
 28 29  1  0
 29 30  1  0
 29 31  2  0
 31 33  1  0
 33 32  2  0
 30 32  1  0
 24 19  1  0
 35 34  1  0
 35 38  1  0
 36 35  1  0
 36 37  2  0
 38 39  1  0
 39 40  1  0
 40 42  2  0
 40 41  1  0
 34 26  1  0
 44 43  1  0
 44 47  1  0
 45 44  1  0
 45 46  2  0
 47 49  1  0
 47 48  1  0
 48 50  1  0
 43 36  1  0
 52 51  1  0
 52 55  1  0
 53 52  1  0
 53 54  2  0
 55 56  1  0
 56 57  1  0
 56 58  1  0
 51 45  1  0
 60 59  1  0
 60 63  1  0
 61 60  1  0
 61 62  2  0
 63 64  1  0
 59 53  1  0
 66 65  1  0
 66 69  1  0
 67 66  1  0
 67 68  2  0
 69 70  1  0
 70 71  1  0
 71 72  1  0
 72 73  1  0
 65 61  1  0
 75 74  1  0
 75 78  1  0
 76 75  1  0
 76 77  2  0
 78 79  1  0
 79 80  1  0
 79 81  1  0
 74 67  1  0
 82 83  1  0
 83 86  1  0
 83 84  1  0
 84 85  2  0
 86 87  1  0
 76 82  1  0
 84 88  1  0
  3 89  1  0
  3 90  1  0
  3 91  1  0
  4 92  1  0
  5 93  1  6
  8 94  1  0
  8 95  1  0
  9 96  1  0
 10 97  1  0
 11 98  1  1
 14 99  1  1
 15100  1  0
 16101  1  0
 16102  1  0
 16103  1  0
 17104  1  0
 18105  1  1
 21106  1  6
 22107  1  0
 22108  1  0
 22109  1  0
 23110  1  0
 23111  1  0
 23112  1  0
 24113  1  0
 25114  1  6
 28115  1  0
 28116  1  0
 30117  1  0
 31118  1  0
 32119  1  0
 34120  1  0
 35121  1  6
 38122  1  0
 38123  1  0
 39124  1  0
 39125  1  0
 43126  1  0
 44127  1  6
 47128  1  1
 48129  1  0
 48130  1  0
 49131  1  0
 49132  1  0
 49133  1  0
 50134  1  0
 50135  1  0
 50136  1  0
 51137  1  0
 52138  1  1
 55139  1  0
 55140  1  0
 56141  1  6
 57142  1  0
 57143  1  0
 57144  1  0
 58145  1  0
 58146  1  0
 58147  1  0
 59148  1  0
 60149  1  6
 63150  1  0
 63151  1  0
 64152  1  0
 65153  1  0
 66154  1  1
 69155  1  0
 69156  1  0
 70157  1  0
 70158  1  0
 71159  1  0
 71160  1  0
 72161  1  0
 72162  1  0
 73163  1  0
 73164  1  0
 73165  1  0
 74166  1  0
 75167  1  1
 78168  1  0
 78169  1  0
 79170  1  6
 80171  1  0
 80172  1  0
 80173  1  0
 81174  1  0
 81175  1  0
 81176  1  0
 82177  1  0
 83178  1  1
 86179  1  0
 86180  1  0
 87181  1  0
 88182  1  0
M  CHG  2  41  -1  73   1
M  END
