### 
### Created by X-TOOL on Mon Aug  2 16:16:56 2021
### 

@<TRIPOS>MOLECULE
6ud2_ligand
  109   115     1     0     0
SMALL
GAST_HUCK


@<TRIPOS>ATOM
      1 C4          9.3900    1.5020   96.8100 C.3       1 Q4D        -0.0683
      2 C3         10.8780    1.4490   97.2140 C.3       1 Q4D        -0.0460
      3 C2         11.7150    2.2400   96.2010 C.3       1 Q4D        -0.0047
      4 C13        11.1120    3.6170   95.9360 C.ar      1 Q4D        -0.0167
      5 C18        11.9730    4.5590   95.3890 C.ar      1 Q4D        -0.0155
      6 C17        11.5100    5.8410   95.1180 C.ar      1 Q4D         0.0648
      7 CL1        12.6030    6.9810   94.4500 Cl        1 Q4D        -0.0445
      8 C16        10.2060    6.2250   95.3920 C.ar      1 Q4D        -0.0253
      9 C15         9.3410    5.2840   95.9410 C.ar      1 Q4D        -0.0456
     10 C14         9.7810    3.9810   96.2050 C.ar      1 Q4D        -0.0422
     11 C1          8.8010    2.9460   96.8080 C.3       1 Q4D         0.0054
     12 C12         8.4580    3.3460   98.2400 C.3       1 Q4D         0.0075
     13 C11         7.4780    2.9000   95.9790 C.3       1 Q4D         0.0598
     14 O1          6.5450    3.9470   96.4310 O.3       1 Q4D        -0.3030
     15 C10         5.6920    3.4600   97.4000 C.ar      1 Q4D         0.1528
     16 C5          4.3500    3.7480   97.1310 C.ar      1 Q4D        -0.0027
     17 C6          3.3660    3.3030   98.0290 C.ar      1 Q4D        -0.0526
     18 C7          3.7370    2.5960   99.1770 C.ar      1 Q4D        -0.0409
     19 C8          5.0850    2.3160   99.4330 C.ar      1 Q4D        -0.0288
     20 C9          6.0860    2.7520   98.5480 C.ar      1 Q4D         0.1058
     21 N1          7.3750    2.5290   98.8200 N.pl3     1 Q4D        -0.3127
     22 C19         7.8420    1.6820   99.9650 C.3       1 Q4D         0.0283
     23 C20         7.6620    2.4550  101.3050 C.3       1 Q4D        -0.0149
     24 C31         8.7720    3.5130  101.5230 C.3       1 Q4D        -0.0475
     25 C30         8.8960    3.0200  102.9730 C.3       1 Q4D        -0.0456
     26 C21         8.2700    1.6950  102.5090 C.3       1 Q4D        -0.0034
     27 C22         7.2480    1.1030  103.5010 C.3       1 Q4D         0.0794
     28 O4          8.0950    0.3320  104.4150 O.3       1 Q4D        -0.3622
     29 C34         7.3740   -0.7950  105.0060 C.3       1 Q4D         0.0901
     30 C35         8.3140   -1.3890  106.0630 C.3       1 Q4D        -0.0073
     31 N5          9.5330   -1.8990  105.4110 N.4       1 Q4D         0.2456
     32 C36        10.5780   -0.8560  105.2450 C.3       1 Q4D         0.0386
     33 C37        11.5870   -1.8660  105.7960 C.3       1 Q4D         0.3251
     34 F1         12.3910   -1.3330  106.7030 F         1 Q4D        -0.1939
     35 F2         12.2570   -2.4770  104.8190 F         1 Q4D        -0.1939
     36 C38        10.3970   -2.6230  106.3760 C.3       1 Q4D         0.0386
     37 C29         6.4750    1.9770  104.2800 C.2       1 Q4D        -0.0700
     38 C28         5.0890    1.8390  104.2880 C.2       1 Q4D        -0.0944
     39 C27         4.2260    2.7870  105.1230 C.3       1 Q4D        -0.0159
     40 C26         3.1980    3.5320  104.2620 C.3       1 Q4D         0.0399
     41 N2          2.0870    2.6440  103.8600 N.am      1 Q4D        -0.2754
     42 C32         1.0910    2.1410  104.8280 C.3       1 Q4D         0.0227
     43 C25         1.8520    2.2650  102.5910 C.2       1 Q4D         0.1701
     44 O3          0.9130    1.5300  102.2540 O.2       1 Q4D        -0.3980
     45 C24         2.8520    2.7640  101.5300 C.3       1 Q4D         0.0427
     46 C23         2.6650    2.0780  100.1670 C.3       1 Q4D         0.1354
     47 O2          1.3460    2.3240   99.6900 O.3       1 Q4D        -0.4286
     48 C33         2.8570    0.5430  100.2200 C.2       1 Q4D         0.2019
     49 O5          2.2570   -0.1930   99.4290 O.2       1 Q4D        -0.3683
     50 N3          3.7080    0.1170  101.1540 N.am      1 Q4D        -0.1486
     51 S1          4.1120   -1.4510  101.3630 S.o2      1 Q4D         0.1402
     52 O6          5.4910   -1.5170  101.9200 O.2       1 Q4D        -0.1304
     53 O7          4.1060   -2.1800  100.0620 O.2       1 Q4D        -0.1304
     54 N4          3.1240   -2.2250  102.4400 N.am      1 Q4D        -0.2241
     55 C40         1.7030   -2.1770  102.0600 C.3       1 Q4D         0.0195
     56 C39         3.2850   -1.6610  103.7950 C.3       1 Q4D         0.0195
     57 H1          8.8136    0.8911   97.5204 H         1 Q4D         0.0166
     58 H2          9.2880    1.0822   95.7984 H         1 Q4D         0.0166
     59 H3         11.2159    0.4023   97.2300 H         1 Q4D         0.0288
     60 H4         11.0016    1.8896   98.2143 H         1 Q4D         0.0288
     61 H5         11.7566    1.6794   95.2555 H         1 Q4D         0.0503
     62 H6         12.7331    2.3654   96.5980 H         1 Q4D         0.0503
     63 H7         13.0023    4.2955   95.1742 H         1 Q4D         0.0639
     64 H8          9.8689    7.2339   95.1834 H         1 Q4D         0.0653
     65 H9          8.3177    5.5617   96.1664 H         1 Q4D         0.0815
     66 H10         8.1434    4.4000   98.2444 H         1 Q4D         0.0407
     67 H11         9.3575    3.2292   98.8622 H         1 Q4D         0.0407
     68 H12         7.0053    1.9150   96.1072 H         1 Q4D         0.0525
     69 H13         7.7119    3.0590   94.9160 H         1 Q4D         0.0525
     70 H14         4.0737    4.3058   96.2435 H         1 Q4D         0.0633
     71 H15         2.3198    3.5075   97.8323 H         1 Q4D         0.0758
     72 H16         5.3587    1.7582  100.3213 H         1 Q4D         0.0656
     73 H17         8.9050    1.4354   99.8263 H         1 Q4D         0.0514
     74 H18         7.2515    0.7545   99.9970 H         1 Q4D         0.0514
     75 H19         6.6266    2.8059  101.4264 H         1 Q4D         0.0325
     76 H20         8.4338    4.5550  101.4236 H         1 Q4D         0.0269
     77 H21         9.6734    3.3601  100.9114 H         1 Q4D         0.0269
     78 H22         8.2925    3.5817  103.7012 H         1 Q4D         0.0270
     79 H23         9.9290    2.9345  103.3412 H         1 Q4D         0.0270
     80 H24         8.9984    0.9191  102.2307 H         1 Q4D         0.0349
     81 H25         6.5600    0.4459  102.9489 H         1 Q4D         0.0723
     82 H26         7.1408   -1.5457  104.2365 H         1 Q4D         0.0615
     83 H27         6.4413   -0.4487  105.4751 H         1 Q4D         0.0615
     84 H28         7.8050   -2.2137  106.5833 H         1 Q4D         0.0837
     85 H29         8.5866   -0.6096  106.7898 H         1 Q4D         0.0837
     86 H30         9.3047   -2.4084  104.5717 H         1 Q4D         0.2039
     87 H31        10.4365    0.0377  105.8706 H         1 Q4D         0.0876
     88 H32        10.7583   -0.5501  104.2039 H         1 Q4D         0.0876
     89 H33        10.4330   -3.7125  106.2290 H         1 Q4D         0.0876
     90 H34        10.1863   -2.4023  107.4328 H         1 Q4D         0.0876
     91 H35         6.9537    2.7554  104.8724 H         1 Q4D         0.0475
     92 H36         4.6182    1.0539  103.6981 H         1 Q4D         0.0451
     93 H37         4.8792    3.5234  105.6139 H         1 Q4D         0.0408
     94 H38         3.6930    2.2026  105.8874 H         1 Q4D         0.0408
     95 H39         3.6966    3.9129  103.3585 H         1 Q4D         0.0542
     96 H40         2.7912    4.3752  104.8395 H         1 Q4D         0.0542
     97 H41         0.3630    1.5022  104.3065 H         1 Q4D         0.0486
     98 H42         0.5678    2.9907  105.2908 H         1 Q4D         0.0486
     99 H43         1.6004    1.5554  105.6075 H         1 Q4D         0.0486
    100 H44         3.8729    2.5637  101.8873 H         1 Q4D         0.0401
    101 H45         2.7151    3.8476  101.3999 H         1 Q4D         0.0401
    102 H46         0.7161    1.9756  100.3100 H         1 Q4D         0.1910
    103 H47         4.1219    0.7959  101.7604 H         1 Q4D         0.2153
    104 H48         1.1036   -2.7075  102.8145 H         1 Q4D         0.0442
    105 H49         1.5689   -2.6588  101.0803 H         1 Q4D         0.0442
    106 H50         1.3743   -1.1289  102.0013 H         1 Q4D         0.0442
    107 H51         2.6198   -2.1897  104.4936 H         1 Q4D         0.0442
    108 H52         3.0262   -0.5920  103.7804 H         1 Q4D         0.0442
    109 H53         4.3288   -1.7812  104.1206 H         1 Q4D         0.0442
@<TRIPOS>BOND
     1    1    2 1  
     2    1   11 1  
     3    2    3 1  
     4    3    4 1  
     5    4    5 ar 
     6    4   10 ar 
     7    5    6 ar 
     8    6    7 1  
     9    6    8 ar 
    10    8    9 ar 
    11    9   10 ar 
    12   10   11 1  
    13   11   12 1  
    14   11   13 1  
    15   12   21 1  
    16   13   14 1  
    17   14   15 1  
    18   15   16 ar 
    19   15   20 ar 
    20   16   17 ar 
    21   17   18 ar 
    22   18   19 ar 
    23   18   46 1  
    24   19   20 ar 
    25   20   21 1  
    26   21   22 1  
    27   22   23 1  
    28   23   24 1  
    29   23   26 1  
    30   24   25 1  
    31   25   26 1  
    32   26   27 1  
    33   27   28 1  
    34   27   37 1  
    35   28   29 1  
    36   29   30 1  
    37   30   31 1  
    38   31   32 1  
    39   31   36 1  
    40   32   33 1  
    41   33   34 1  
    42   33   35 1  
    43   33   36 1  
    44   37   38 2  
    45   38   39 1  
    46   39   40 1  
    47   40   41 1  
    48   41   42 1  
    49   41   43 am 
    50   43   44 2  
    51   43   45 1  
    52   45   46 1  
    53   46   47 1  
    54   46   48 1  
    55   48   49 2  
    56   48   50 am 
    57   50   51 am 
    58   51   52 2  
    59   51   53 2  
    60   51   54 am 
    61   54   55 1  
    62   54   56 1  
    63    1   57 1  
    64    1   58 1  
    65    2   59 1  
    66    2   60 1  
    67    3   61 1  
    68    3   62 1  
    69    5   63 1  
    70    8   64 1  
    71    9   65 1  
    72   12   66 1  
    73   12   67 1  
    74   13   68 1  
    75   13   69 1  
    76   16   70 1  
    77   17   71 1  
    78   19   72 1  
    79   22   73 1  
    80   22   74 1  
    81   23   75 1  
    82   24   76 1  
    83   24   77 1  
    84   25   78 1  
    85   25   79 1  
    86   26   80 1  
    87   27   81 1  
    88   29   82 1  
    89   29   83 1  
    90   30   84 1  
    91   30   85 1  
    92   31   86 1  
    93   32   87 1  
    94   32   88 1  
    95   36   89 1  
    96   36   90 1  
    97   37   91 1  
    98   38   92 1  
    99   39   93 1  
   100   39   94 1  
   101   40   95 1  
   102   40   96 1  
   103   42   97 1  
   104   42   98 1  
   105   42   99 1  
   106   45  100 1  
   107   45  101 1  
   108   47  102 1  
   109   50  103 1  
   110   55  104 1  
   111   55  105 1  
   112   55  106 1  
   113   56  107 1  
   114   56  108 1  
   115   56  109 1  
@<TRIPOS>SUBSTRUCTURE
     1 Q4D         1

