6ud2_ligand
  -I-interpret- 

109115  0  0  0  0  0  0  0  0999 V2000
    9.3900    1.5020   96.8100 C   0  0  0  0  0
   10.8780    1.4490   97.2140 C   0  0  0  0  0
   11.7150    2.2400   96.2010 C   0  0  0  0  0
   11.1120    3.6170   95.9360 C   0  0  0  0  0
   11.9730    4.5590   95.3890 C   0  0  0  0  0
   11.5100    5.8410   95.1180 C   0  0  0  0  0
   12.6030    6.9810   94.4500 Cl  0  0  0  0  0
   10.2060    6.2250   95.3920 C   0  0  0  0  0
    9.3410    5.2840   95.9410 C   0  0  0  0  0
    9.7810    3.9810   96.2050 C   0  0  0  0  0
    8.8010    2.9460   96.8080 C   0  0  0  0  0
    8.4580    3.3460   98.2400 C   0  0  0  0  0
    7.4780    2.9000   95.9790 C   0  0  0  0  0
    6.5450    3.9470   96.4310 O   0  0  0  0  0
    5.6920    3.4600   97.4000 C   0  0  0  0  0
    4.3500    3.7480   97.1310 C   0  0  0  0  0
    3.3660    3.3030   98.0290 C   0  0  0  0  0
    3.7370    2.5960   99.1770 C   0  0  0  0  0
    5.0850    2.3160   99.4330 C   0  0  0  0  0
    6.0860    2.7520   98.5480 C   0  0  0  0  0
    7.3750    2.5290   98.8200 N   0  0  0  0  0
    7.8420    1.6820   99.9650 C   0  0  0  0  0
    7.6620    2.4550  101.3050 C   0  0  0  0  0
    8.7720    3.5130  101.5230 C   0  0  0  0  0
    8.8960    3.0200  102.9730 C   0  0  0  0  0
    8.2700    1.6950  102.5090 C   0  0  0  0  0
    7.2480    1.1030  103.5010 C   0  0  0  0  0
    8.0950    0.3320  104.4150 O   0  0  0  0  0
    7.3740   -0.7950  105.0060 C   0  0  0  0  0
    8.3140   -1.3890  106.0630 C   0  0  0  0  0
    9.5330   -1.8990  105.4110 N   0  3  0  0  0
   10.5780   -0.8560  105.2450 C   0  0  0  0  0
   11.5870   -1.8660  105.7960 C   0  0  0  0  0
   12.3910   -1.3330  106.7030 F   0  0  0  0  0
   12.2570   -2.4770  104.8190 F   0  0  0  0  0
   10.3970   -2.6230  106.3760 C   0  0  0  0  0
    6.4750    1.9770  104.2800 C   0  0  0  0  0
    5.0890    1.8390  104.2880 C   0  0  0  0  0
    4.2260    2.7870  105.1230 C   0  0  0  0  0
    3.1980    3.5320  104.2620 C   0  0  0  0  0
    2.0870    2.6440  103.8600 N   0  0  0  0  0
    1.0910    2.1410  104.8280 C   0  0  0  0  0
    1.8520    2.2650  102.5910 C   0  0  0  0  0
    0.9130    1.5300  102.2540 O   0  0  0  0  0
    2.8520    2.7640  101.5300 C   0  0  0  0  0
    2.6650    2.0780  100.1670 C   0  0  0  0  0
    1.3460    2.3240   99.6900 O   0  0  0  0  0
    2.8570    0.5430  100.2200 C   0  0  0  0  0
    2.2570   -0.1930   99.4290 O   0  0  0  0  0
    3.7080    0.1170  101.1540 N   0  0  0  0  0
    4.1120   -1.4510  101.3630 S   0  0  0  0  0
    5.4910   -1.5170  101.9200 O   0  0  0  0  0
    4.1060   -2.1800  100.0620 O   0  0  0  0  0
    3.1240   -2.2250  102.4400 N   0  0  0  0  0
    1.7030   -2.1770  102.0600 C   0  0  0  0  0
    3.2850   -1.6610  103.7950 C   0  0  0  0  0
    8.8297    0.9192   97.5411 H   0  0  0  0  0
    9.3107    1.1130   95.7949 H   0  0  0  0  0
   11.2125    0.4117   97.2286 H   0  0  0  0  0
   11.0000    1.8867   98.2048 H   0  0  0  0  0
   11.7383    1.6856   95.2628 H   0  0  0  0  0
   12.7171    2.3732   96.6085 H   0  0  0  0  0
   13.0080    4.2940   95.1730 H   0  0  0  0  0
    9.8670    7.2395   95.1823 H   0  0  0  0  0
    8.3120    5.5632   96.1676 H   0  0  0  0  0
    8.1216    4.3827   98.2248 H   0  0  0  0  0
    9.3495    3.1986   98.8496 H   0  0  0  0  0
    7.0089    1.9258   96.1170 H   0  0  0  0  0
    7.7141    3.0675   94.9281 H   0  0  0  0  0
    4.0722    4.3089   96.2386 H   0  0  0  0  0
    2.3140    3.5086   97.8312 H   0  0  0  0  0
    5.3602    1.7552  100.3262 H   0  0  0  0  0
    8.8963    1.4418   99.8276 H   0  0  0  0  0
    7.2533    0.7652   99.9972 H   0  0  0  0  0
    6.6052    2.7174  101.2549 H   0  0  0  0  0
    8.5944    4.5655  101.3020 H   0  0  0  0  0
    9.6428    3.5548  100.8688 H   0  0  0  0  0
    8.4743    3.5868  103.8031 H   0  0  0  0  0
    9.8495    3.0430  103.5006 H   0  0  0  0  0
    8.8698    0.7981  102.3541 H   0  0  0  0  0
    6.4939    0.5775  102.9151 H   0  0  0  0  0
    7.1103   -1.5354  104.2507 H   0  0  0  0  0
    6.4326   -0.4725  105.4507 H   0  0  0  0  0
    7.8094   -2.2070  106.5773 H   0  0  0  0  0
    8.5847   -0.6158  106.7820 H   0  0  0  0  0
    9.1496   -2.3677  104.5902 H   0  0  0  0  0
   10.4667    0.1334  105.6886 H   0  0  0  0  0
   10.7373   -0.3608  104.2871 H   0  0  0  0  0
   10.3930   -3.7116  106.4303 H   0  0  0  0  0
   10.1851   -2.6073  107.4451 H   0  0  0  0  0
    6.9542    2.7561  104.8729 H   0  0  0  0  0
    4.6178    1.0532  103.6976 H   0  0  0  0  0
    4.8802    3.5240  105.5889 H   0  0  0  0  0
    3.6875    2.1960  105.8638 H   0  0  0  0  0
    3.6962    3.8924  103.3620 H   0  0  0  0  0
    2.7886    4.3558  104.8466 H   0  0  0  0  0
    1.5970    1.5610  105.5998 H   0  0  0  0  0
    0.5733    2.9839  105.2859 H   0  0  0  0  0
    0.3703    1.5082  104.3101 H   0  0  0  0  0
    3.8570    2.5348  101.8843 H   0  0  0  0  0
    2.6869    3.8325  101.3917 H   0  0  0  0  0
    0.7094    1.9910  100.3267 H   0  0  0  0  0
    4.1302    0.8095  101.7725 H   0  0  0  0  0
    1.3786   -1.1380  102.0021 H   0  0  0  0  0
    1.5715   -2.6547  101.0891 H   0  0  0  0  0
    1.1101   -2.7029  102.8084 H   0  0  0  0  0
    4.3196   -1.7807  104.1164 H   0  0  0  0  0
    3.0284   -0.6018  103.7791 H   0  0  0  0  0
    2.6254   -2.1856  104.4863 H   0  0  0  0  0
  1  2  1  0  0  0
  1 11  1  0  0  0
  2  3  1  0  0  0
  3  4  1  0  0  0
  4  5  4  0  0  0
  4 10  4  0  0  0
  5  6  4  0  0  0
  6  7  1  0  0  0
  6  8  4  0  0  0
  8  9  4  0  0  0
  9 10  4  0  0  0
 10 11  1  0  0  0
 11 12  1  0  0  0
 11 13  1  0  0  0
 12 21  1  0  0  0
 13 14  1  0  0  0
 14 15  1  0  0  0
 15 16  4  0  0  0
 15 20  4  0  0  0
 16 17  4  0  0  0
 17 18  4  0  0  0
 18 19  4  0  0  0
 18 46  1  0  0  0
 19 20  4  0  0  0
 20 21  1  0  0  0
 21 22  1  0  0  0
 22 23  1  0  0  0
 23 24  1  0  0  0
 23 26  1  0  0  0
 24 25  1  0  0  0
 25 26  1  0  0  0
 26 27  1  0  0  0
 27 28  1  0  0  0
 27 37  1  0  0  0
 28 29  1  0  0  0
 29 30  1  0  0  0
 30 31  1  0  0  0
 31 32  1  0  0  0
 31 36  1  0  0  0
 32 33  1  0  0  0
 33 34  1  0  0  0
 33 35  1  0  0  0
 33 36  1  0  0  0
 37 38  2  0  0  0
 38 39  1  0  0  0
 39 40  1  0  0  0
 40 41  1  0  0  0
 41 42  1  0  0  0
 41 43  1  0  0  0
 43 44  2  0  0  0
 43 45  1  0  0  0
 45 46  1  0  0  0
 46 47  1  0  0  0
 46 48  1  0  0  0
 48 49  2  0  0  0
 48 50  1  0  0  0
 50 51  1  0  0  0
 51 52  2  0  0  0
 51 53  2  0  0  0
 51 54  1  0  0  0
 54 55  1  0  0  0
 54 56  1  0  0  0
  1 57  1  0  0  0
  1 58  1  0  0  0
  2 59  1  0  0  0
  2 60  1  0  0  0
  3 61  1  0  0  0
  3 62  1  0  0  0
  5 63  1  0  0  0
  8 64  1  0  0  0
  9 65  1  0  0  0
 12 66  1  0  0  0
 12 67  1  0  0  0
 13 68  1  0  0  0
 13 69  1  0  0  0
 16 70  1  0  0  0
 17 71  1  0  0  0
 19 72  1  0  0  0
 22 73  1  0  0  0
 22 74  1  0  0  0
 23 75  1  0  0  0
 24 76  1  0  0  0
 24 77  1  0  0  0
 25 78  1  0  0  0
 25 79  1  0  0  0
 26 80  1  0  0  0
 27 81  1  0  0  0
 29 82  1  0  0  0
 29 83  1  0  0  0
 30 84  1  0  0  0
 30 85  1  0  0  0
 31 86  1  0  0  0
 32 87  1  0  0  0
 32 88  1  0  0  0
 36 89  1  0  0  0
 36 90  1  0  0  0
 37 91  1  0  0  0
 38 92  1  0  0  0
 39 93  1  0  0  0
 39 94  1  0  0  0
 40 95  1  0  0  0
 40 96  1  0  0  0
 42 97  1  0  0  0
 42 98  1  0  0  0
 42 99  1  0  0  0
 45100  1  0  0  0
 45101  1  0  0  0
 47102  1  0  0  0
 50103  1  0  0  0
 55104  1  0  0  0
 55105  1  0  0  0
 55106  1  0  0  0
 56107  1  0  0  0
 56108  1  0  0  0
 56109  1  0  0  0
M  END
$$$$
