4re2_ligand
  -I-interpret- 

 26 27  0  0  0  0  0  0  0  0999 V2000
    8.6580   12.4580   13.4040 C   0  0  0  0  0
    9.0560   13.0720   12.3080 N   0  0  0  0  0
    8.7310   10.2090   12.3540 C   0  0  0  0  0
    8.9810   11.0150   11.0590 C   0  0  0  0  0
    9.8170   12.2840   11.2990 C   0  0  0  0  0
   10.1250   13.0950   10.0440 C   0  0  0  0  0
    7.9500   14.5290   13.5170 C   0  0  0  0  0
    8.6440   14.3530   12.3330 C   0  0  0  0  0
    7.9870   13.3400   14.1710 N   0  0  0  0  0
    7.3710    9.7560   12.3840 O   0  0  0  0  0
    8.3080   10.5060   14.7780 O   0  0  0  0  0
    9.6180   10.1620   10.1060 O   0  0  0  0  0
    8.9980   11.0230   13.6330 C   0  0  0  0  0
    8.9290   13.6660    9.5110 O   0  0  0  0  0
    9.4297    9.3725   12.3381 H   0  0  0  0  0
    8.0183   11.3566   10.6787 H   0  0  0  0  0
   10.8115   12.0089   11.6503 H   0  0  0  0  0
   10.5666   12.4362    9.2963 H   0  0  0  0  0
   10.8161   13.8975   10.3018 H   0  0  0  0  0
    7.4672   15.4447   13.8584 H   0  0  0  0  0
    8.8228   15.1075   11.5670 H   0  0  0  0  0
    7.1874    9.2456   11.5919 H   0  0  0  0  0
    8.5094   11.0490   15.5437 H   0  0  0  0  0
    9.0811    9.3777    9.9710 H   0  0  0  0  0
   10.0613   10.9362   13.8564 H   0  0  0  0  0
    9.1408   14.1720    8.7231 H   0  0  0  0  0
  1  2  4  0  0  0
  1  9  4  0  0  0
 13  1  1  0  0  0
  2  5  1  0  0  0
  2  8  4  0  0  0
  3  4  1  0  0  0
  3 10  1  0  0  0
  3 13  1  0  0  0
  4  5  1  0  0  0
  4 12  1  0  0  0
  5  6  1  0  0  0
  6 14  1  0  0  0
  8  7  4  0  0  0
  7  9  4  0  0  0
 13 11  1  0  0  0
  3 15  1  0  0  0
  4 16  1  0  0  0
  5 17  1  0  0  0
  6 18  1  0  0  0
  6 19  1  0  0  0
  7 20  1  0  0  0
  8 21  1  0  0  0
 10 22  1  0  0  0
 11 23  1  0  0  0
 12 24  1  0  0  0
 13 25  1  0  0  0
 14 26  1  0  0  0
M  END
$$$$
