### 
### Created by X-TOOL on Mon Sep 10 21:13:23 2018
### 

@<TRIPOS>MOLECULE
4re2_ligand
   26    27     1     0     0
SMALL
GAST_HUCK


@<TRIPOS>ATOM
      1 C1          8.6580   12.4580   13.4040 C.2       1 MVL         0.1465
      2 N10         9.0560   13.0720   12.3080 N.pl3     1 MVL        -0.2404
      3 C3          8.7310   10.2090   12.3540 C.3       1 MVL         0.1253
      4 C4          8.9810   11.0150   11.0590 C.3       1 MVL         0.1183
      5 C5          9.8170   12.2840   11.2990 C.3       1 MVL         0.1196
      6 C6         10.1250   13.0950   10.0440 C.3       1 MVL         0.0773
      7 C7          7.9500   14.5290   13.5170 C.2       1 MVL        -0.0364
      8 C8          8.6440   14.3530   12.3330 C.2       1 MVL         0.0285
      9 N1          7.9870   13.3400   14.1710 N.2       1 MVL        -0.3367
     10 O3          7.3710    9.7560   12.3840 O.3       1 MVL        -0.3839
     11 O2          8.3080   10.5060   14.7780 O.3       1 MVL        -0.3699
     12 O4          9.6180   10.1620   10.1060 O.3       1 MVL        -0.3858
     13 C2          8.9980   11.0230   13.6330 C.3       1 MVL         0.1586
     14 O6          8.9290   13.6660    9.5110 O.3       1 MVL        -0.3918
     15 H1          9.4015    9.3370   12.3504 H         1 MVL         0.0675
     16 H2          8.0065   11.3263   10.6548 H         1 MVL         0.0654
     17 H3         10.7821   11.9858   11.7344 H         1 MVL         0.0704
     18 H4         10.5788   12.4358    9.2894 H         1 MVL         0.0589
     19 H5         10.8291   13.9012   10.2977 H         1 MVL         0.0589
     20 H6          7.4677   15.4439   13.8581 H         1 MVL         0.0408
     21 H7          8.8227   15.1069   11.5677 H         1 MVL         0.0796
     22 H8          6.7881   10.5058   12.3608 H         1 MVL         0.2103
     23 H9          8.5072   11.0433   15.5357 H         1 MVL         0.2138
     24 H10         9.7154   10.6259    9.2828 H         1 MVL         0.2100
     25 H11        10.0755   10.9612   13.8455 H         1 MVL         0.0858
     26 H12         8.3198   12.9718    9.2886 H         1 MVL         0.2095
@<TRIPOS>BOND
     1    1    2 1  
     2    1    9 2  
     3   13    1 1  
     4    2    5 1  
     5    2    8 1  
     6    3    4 1  
     7    3   10 1  
     8    3   13 1  
     9    4    5 1  
    10    4   12 1  
    11    5    6 1  
    12    6   14 1  
    13    8    7 2  
    14    7    9 1  
    15   13   11 1  
    16    3   15 1  
    17    4   16 1  
    18    5   17 1  
    19    6   18 1  
    20    6   19 1  
    21    7   20 1  
    22    8   21 1  
    23   10   22 1  
    24   11   23 1  
    25   12   24 1  
    26   13   25 1  
    27   14   26 1  
@<TRIPOS>SUBSTRUCTURE
     1 MVL         1

