### 
### Created by X-TOOL on Mon Sep 10 21:13:03 2018
### 

@<TRIPOS>MOLECULE
3lvw_ligand
   36    35     1     0     0
SMALL
GAST_HUCK


@<TRIPOS>ATOM
      1 N1          1.5710   35.5950  -18.6260 N.4       1 GSH         0.2328
      2 CA1         0.9400   34.9980  -19.8150 C.3       1 GSH         0.0304
      3 C1          1.0610   35.8670  -21.0700 C.2       1 GSH         0.0846
      4 O11         0.6150   35.3250  -22.1390 O.co2     1 GSH        -0.5643
      5 O12         1.5960   37.0510  -21.0330 O.co2     1 GSH        -0.5643
      6 CB1        -0.5580   34.7450  -19.6180 C.3       1 GSH         0.0193
      7 CG1        -0.9570   33.9430  -18.3810 C.3       1 GSH         0.0441
      8 CD1        -0.6500   32.4680  -18.6060 C.2       1 GSH         0.1785
      9 OE1        -0.6650   31.9560  -19.7230 O.2       1 GSH        -0.3969
     10 N2         -0.3790   31.8080  -17.4910 N.am      1 GSH        -0.2648
     11 CA2        -0.0930   30.3970  -17.4670 C.3       1 GSH         0.1395
     12 C2         -1.3610   29.6390  -17.2150 C.2       1 GSH         0.2039
     13 O2         -1.5520   28.6450  -17.8730 O.2       1 GSH        -0.3944
     14 CB2         0.9660   30.1780  -16.3730 C.3       1 GSH         0.0311
     15 SG2         1.6530   28.4950  -16.2930 S.3       1 GSH        -0.1735
     16 N3         -2.2380   30.0930  -16.3200 N.am      1 GSH        -0.2722
     17 CA3        -3.4970   29.4650  -15.9260 C.3       1 GSH         0.0833
     18 C3         -3.1200   28.3820  -14.9020 C.2       1 GSH         0.0570
     19 O31        -1.9530   28.3860  -14.4020 O.co2     1 GSH        -0.5669
     20 O32        -3.9610   27.4980  -14.5620 O.co2     1 GSH        -0.5669
     21 H1          1.4565   34.9763  -17.8385 H         1 GSH         0.2010
     22 H2          1.1350   36.4810  -18.4233 H         1 GSH         0.2010
     23 H3          2.5534   35.7364  -18.8022 H         1 GSH         0.2010
     24 H4          1.4401   34.0367  -20.0042 H         1 GSH         0.1026
     25 H5         -0.9240   34.2010  -20.5012 H         1 GSH         0.0363
     26 H6         -1.0570   35.7234  -19.5571 H         1 GSH         0.0363
     27 H7         -2.0339   34.0683  -18.1953 H         1 GSH         0.0505
     28 H8         -0.3902   34.3061  -17.5110 H         1 GSH         0.0505
     29 H9         -0.3726   32.3116  -16.6271 H         1 GSH         0.1883
     30 H10         0.3191   30.0814  -18.4368 H         1 GSH         0.0808
     31 H11         0.5040   30.4044  -15.4007 H         1 GSH         0.0422
     32 H12         1.7956   30.8767  -16.5564 H         1 GSH         0.0422
     33 H13         2.3342   28.4463  -15.5516 H         1 GSH         0.1019
     34 H14        -2.0098   30.9562  -15.8697 H         1 GSH         0.1873
     35 H15        -3.9893   29.0122  -16.7992 H         1 GSH         0.0689
     36 H16        -4.1691   30.2067  -15.4697 H         1 GSH         0.0689
@<TRIPOS>BOND
     1    1    2 1  
     2    2    3 1  
     3    2    6 1  
     4    3    4 ar 
     5    3    5 ar 
     6    6    7 1  
     7    7    8 1  
     8    8    9 2  
     9    8   10 am 
    10   10   11 1  
    11   11   12 1  
    12   11   14 1  
    13   12   13 2  
    14   12   16 am 
    15   14   15 1  
    16   16   17 1  
    17   17   18 1  
    18   18   19 ar 
    19   18   20 ar 
    20    1   21 1  
    21    1   22 1  
    22    1   23 1  
    23    2   24 1  
    24    6   25 1  
    25    6   26 1  
    26    7   27 1  
    27    7   28 1  
    28   10   29 1  
    29   11   30 1  
    30   14   31 1  
    31   14   32 1  
    32   15   33 1  
    33   16   34 1  
    34   17   35 1  
    35   17   36 1  
@<TRIPOS>SUBSTRUCTURE
     1 GSH         1

