3lvw_ligand
  -I-interpret- 

 38 37  0  0  0  0  0  0  0  0999 V2000
    1.5710   35.5950  -18.6260 N   0  3  0  0  0
    0.9400   34.9980  -19.8150 C   0  0  0  0  0
    1.0610   35.8670  -21.0700 C   0  0  0  0  0
    0.6150   35.3250  -22.1390 O   0  0  0  0  0
    1.5960   37.0510  -21.0330 O   0  0  0  0  0
   -0.5580   34.7450  -19.6180 C   0  0  0  0  0
   -0.9570   33.9430  -18.3810 C   0  0  0  0  0
   -0.6500   32.4680  -18.6060 C   0  0  0  0  0
   -0.6650   31.9560  -19.7230 O   0  0  0  0  0
   -0.3790   31.8080  -17.4910 N   0  0  0  0  0
   -0.0930   30.3970  -17.4670 C   0  0  0  0  0
   -1.3610   29.6390  -17.2150 C   0  0  0  0  0
   -1.5520   28.6450  -17.8730 O   0  0  0  0  0
    0.9660   30.1780  -16.3730 C   0  0  0  0  0
    1.6530   28.4950  -16.2930 S   0  0  0  0  0
   -2.2380   30.0930  -16.3200 N   0  0  0  0  0
   -3.4970   29.4650  -15.9260 C   0  0  0  0  0
   -3.1200   28.3820  -14.9020 C   0  0  0  0  0
   -1.9530   28.3860  -14.4020 O   0  0  0  0  0
   -3.9610   27.4980  -14.5620 O   0  0  0  0  0
    2.5637   35.7430  -18.8076 H   0  0  0  0  0
    1.1252   36.4886  -18.4185 H   0  0  0  0  0
    1.4596   34.9655  -17.8312 H   0  0  0  0  0
    1.4842   34.0633  -19.9498 H   0  0  0  0  0
    1.8588   37.2542  -20.1323 H   0  0  0  0  0
   -0.8799   34.1556  -20.4765 H   0  0  0  0  0
   -1.0172   35.7268  -19.5021 H   0  0  0  0  0
   -2.0245   34.0666  -18.1985 H   0  0  0  0  0
   -0.3940   34.3024  -17.5197 H   0  0  0  0  0
   -0.3725   32.3217  -16.6098 H   0  0  0  0  0
    0.2991   30.0319  -18.4163 H   0  0  0  0  0
    0.4744   30.3628  -15.4179 H   0  0  0  0  0
    1.7965   30.8462  -16.6009 H   0  0  0  0  0
    2.5518   28.4308  -15.3148 H   0  0  0  0  0
   -2.0052   30.9735  -15.8607 H   0  0  0  0  0
   -4.0133   29.0368  -16.7852 H   0  0  0  0  0
   -4.1872   30.1925  -15.4989 H   0  0  0  0  0
   -1.4518   29.1184  -14.7680 H   0  0  0  0  0
  1  2  1  0  0  0
  2  3  1  0  0  0
  2  6  1  0  0  0
  3  4  2  0  0  0
  3  5  1  0  0  0
  6  7  1  0  0  0
  7  8  1  0  0  0
  8  9  2  0  0  0
  8 10  1  0  0  0
 10 11  1  0  0  0
 11 12  1  0  0  0
 11 14  1  0  0  0
 12 13  2  0  0  0
 12 16  1  0  0  0
 14 15  1  0  0  0
 16 17  1  0  0  0
 17 18  1  0  0  0
 18 19  1  0  0  0
 18 20  2  0  0  0
  1 21  1  0  0  0
  1 22  1  0  0  0
  1 23  1  0  0  0
  2 24  1  0  0  0
  5 25  1  0  0  0
  6 26  1  0  0  0
  6 27  1  0  0  0
  7 28  1  0  0  0
  7 29  1  0  0  0
 10 30  1  0  0  0
 11 31  1  0  0  0
 14 32  1  0  0  0
 14 33  1  0  0  0
 15 34  1  0  0  0
 16 35  1  0  0  0
 17 36  1  0  0  0
 17 37  1  0  0  0
 19 38  1  0  0  0
M  END
$$$$
