1os5_ligand
  -I-interpret- 

 72 75  0  0  0  0  0  0  0  0999 V2000
   41.6920   11.1980   61.0210 O   0  0  0  0  0
   41.6830   11.9680   59.8800 C   0  0  0  0  0
   42.8900   12.3250   59.2750 C   0  0  0  0  0
   42.8870   13.1430   58.1400 C   0  0  0  0  0
   41.6770   13.6050   57.6140 C   0  0  0  0  0
   40.4700   13.2400   58.2270 C   0  0  0  0  0
   40.4700   12.4230   59.3600 C   0  0  0  0  0
   41.6750   14.4660   56.4120 C   0  0  0  0  0
   41.3870   13.6910   55.1110 C   0  0  0  0  0
   41.0910   14.6110   53.8910 C   0  0  0  0  0
   40.8140   13.7050   52.7650 O   0  0  0  0  0
   41.8360   12.9630   52.2500 C   0  0  0  0  0
   41.6650   11.9290   51.5950 O   0  0  0  0  0
   43.2360   13.4350   52.5240 C   0  0  0  0  0
   44.6280   12.4690   52.0190 S   0  0  0  0  0
   45.1900   13.2120   50.5170 C   0  0  0  0  0
   44.1960   13.7390   49.6930 C   0  0  0  0  0
   44.5250   14.3180   48.4780 C   0  0  0  0  0
   45.8650   14.4040   48.0830 C   0  0  0  0  0
   46.1870   14.9380   46.9070 N   0  0  0  0  0
   46.8660   13.8810   48.9010 C   0  0  0  0  0
   46.5590   13.2990   50.1370 C   0  0  0  0  0
   47.6760   12.8140   51.0010 C   0  0  0  0  0
   47.6920   13.5930   52.3300 C   0  0  0  0  0
   49.0390   13.0360   50.3130 C   0  0  0  0  0
   47.5430   11.3170   51.3090 C   0  0  0  0  0
   43.4680   14.9260   47.6680 C   0  0  0  0  0
   43.4340   14.6100   53.1600 C   0  0  0  0  0
   44.6790   15.0720   53.3100 O   0  0  0  0  0
   42.2820   15.5390   53.4900 C   0  0  0  0  0
   39.8380   15.5100   54.1210 C   0  0  0  0  0
   38.5880   14.7940   54.6730 C   0  0  0  0  0
   37.3830   15.6100   54.1610 C   0  0  0  0  0
   37.8970   16.5730   53.0530 C   0  0  0  0  0
   39.3830   16.2610   52.8480 C   0  0  0  0  0
   40.7892   11.0426   61.3080 H   0  0  0  0  0
   43.8335   11.9667   59.6867 H   0  0  0  0  0
   43.8284   13.4202   57.6657 H   0  0  0  0  0
   39.5251   13.5962   57.8166 H   0  0  0  0  0
   39.5297   12.1428   59.8347 H   0  0  0  0  0
   42.6671   14.9082   56.3206 H   0  0  0  0  0
   40.8851   15.2066   56.5373 H   0  0  0  0  0
   40.5003   13.0809   55.2832 H   0  0  0  0  0
   42.2773   13.1088   54.8732 H   0  0  0  0  0
   43.1531   13.6951   50.0069 H   0  0  0  0  0
   45.4554   15.2873   46.2880 H   0  0  0  0  0
   47.1654   14.9978   46.6248 H   0  0  0  0  0
   47.9045   13.9260   48.5728 H   0  0  0  0  0
   47.8313   14.6546   52.1258 H   0  0  0  0  0
   46.7455   13.4427   52.8492 H   0  0  0  0  0
   48.5106   13.2309   52.9521 H   0  0  0  0  0
   49.0617   12.4900   49.3699 H   0  0  0  0  0
   49.1791   14.0999   50.1219 H   0  0  0  0  0
   49.8358   12.6743   50.9629 H   0  0  0  0  0
   46.6020   11.1365   51.8287 H   0  0  0  0  0
   47.5586   10.7527   50.3766 H   0  0  0  0  0
   48.3742   11.0019   51.9398 H   0  0  0  0  0
   42.7241   14.1699   47.4169 H   0  0  0  0  0
   42.9953   15.7291   48.2334 H   0  0  0  0  0
   43.9004   15.3301   46.7527 H   0  0  0  0  0
   44.6540   15.9099   53.7778 H   0  0  0  0  0
   42.5421   16.2229   54.2979 H   0  0  0  0  0
   42.0247   16.1704   52.6396 H   0  0  0  0  0
   40.2107   16.1976   54.8802 H   0  0  0  0  0
   38.6038   14.7470   55.7619 H   0  0  0  0  0
   38.5403   13.7585   54.3359 H   0  0  0  0  0
   36.9357   16.1770   54.9774 H   0  0  0  0  0
   36.6187   14.9447   53.7593 H   0  0  0  0  0
   37.7570   17.6128   53.3484 H   0  0  0  0  0
   37.3401   16.4300   52.1270 H   0  0  0  0  0
   39.5408   15.6568   51.9546 H   0  0  0  0  0
   39.9616   17.1725   52.6983 H   0  0  0  0  0
  1  2  1  0  0  0
  2  3  4  0  0  0
  2  7  4  0  0  0
  3  4  4  0  0  0
  4  5  4  0  0  0
  5  6  4  0  0  0
  5  8  1  0  0  0
  6  7  4  0  0  0
  8  9  1  0  0  0
  9 10  1  0  0  0
 10 11  1  0  0  0
 10 30  1  0  0  0
 10 31  1  0  0  0
 11 12  1  0  0  0
 12 13  2  0  0  0
 12 14  1  0  0  0
 14 15  1  0  0  0
 14 28  2  0  0  0
 15 16  1  0  0  0
 16 17  4  0  0  0
 16 22  4  0  0  0
 17 18  4  0  0  0
 18 19  4  0  0  0
 18 27  1  0  0  0
 19 20  1  0  0  0
 19 21  4  0  0  0
 21 22  4  0  0  0
 22 23  1  0  0  0
 23 24  1  0  0  0
 23 25  1  0  0  0
 23 26  1  0  0  0
 28 29  1  0  0  0
 28 30  1  0  0  0
 31 32  1  0  0  0
 31 35  1  0  0  0
 32 33  1  0  0  0
 33 34  1  0  0  0
 34 35  1  0  0  0
  1 36  1  0  0  0
  3 37  1  0  0  0
  4 38  1  0  0  0
  6 39  1  0  0  0
  7 40  1  0  0  0
  8 41  1  0  0  0
  8 42  1  0  0  0
  9 43  1  0  0  0
  9 44  1  0  0  0
 17 45  1  0  0  0
 20 46  1  0  0  0
 20 47  1  0  0  0
 21 48  1  0  0  0
 24 49  1  0  0  0
 24 50  1  0  0  0
 24 51  1  0  0  0
 25 52  1  0  0  0
 25 53  1  0  0  0
 25 54  1  0  0  0
 26 55  1  0  0  0
 26 56  1  0  0  0
 26 57  1  0  0  0
 27 58  1  0  0  0
 27 59  1  0  0  0
 27 60  1  0  0  0
 29 61  1  0  0  0
 30 62  1  0  0  0
 30 63  1  0  0  0
 31 64  1  0  0  0
 32 65  1  0  0  0
 32 66  1  0  0  0
 33 67  1  0  0  0
 33 68  1  0  0  0
 34 69  1  0  0  0
 34 70  1  0  0  0
 35 71  1  0  0  0
 35 72  1  0  0  0
M  END
$$$$
