### 
### Created by X-TOOL on Mon Sep 10 21:12:51 2018
### 

@<TRIPOS>MOLECULE
1os5_ligand
   72    75     1     0     0
SMALL
GAST_HUCK


@<TRIPOS>ATOM
      1 O4         41.6920   11.1980   61.0210 O.3       1 NH1        -0.3376
      2 C23        41.6830   11.9680   59.8800 C.ar      1 NH1         0.0805
      3 C20        42.8900   12.3250   59.2750 C.ar      1 NH1        -0.0398
      4 C17        42.8870   13.1430   58.1400 C.ar      1 NH1        -0.0687
      5 C29        41.6770   13.6050   57.6140 C.ar      1 NH1        -0.0536
      6 C14        40.4700   13.2400   58.2270 C.ar      1 NH1        -0.0687
      7 C25        40.4700   12.4230   59.3600 C.ar      1 NH1        -0.0398
      8 C8         41.6750   14.4660   56.4120 C.3       1 NH1        -0.0211
      9 C7         41.3870   13.6910   55.1110 C.3       1 NH1        -0.0085
     10 C3         41.0910   14.6110   53.8910 C.3       1 NH1         0.1152
     11 O2         40.8140   13.7050   52.7650 O.3       1 NH1        -0.2763
     12 C1         41.8360   12.9630   52.2500 C.2       1 NH1         0.2343
     13 O1         41.6650   11.9290   51.5950 O.2       1 NH1        -0.3883
     14 C6         43.2360   13.4350   52.5240 C.2       1 NH1         0.1188
     15 S1         44.6280   12.4690   52.0190 S.3       1 NH1        -0.0514
     16 C21        45.1900   13.2120   50.5170 C.ar      1 NH1         0.0327
     17 C24        44.1960   13.7390   49.6930 C.ar      1 NH1        -0.0205
     18 C12        44.5250   14.3180   48.4780 C.ar      1 NH1         0.0027
     19 C2         45.8650   14.4040   48.0830 C.ar      1 NH1         0.0624
     20 N1         46.1870   14.9380   46.9070 N.pl3     1 NH1        -0.3362
     21 C15        46.8660   13.8810   48.9010 C.ar      1 NH1        -0.0373
     22 C18        46.5590   13.2990   50.1370 C.ar      1 NH1        -0.0614
     23 C26        47.6760   12.8140   51.0010 C.3       1 NH1        -0.0659
     24 C10        47.6920   13.5930   52.3300 C.3       1 NH1        -0.0953
     25 C27        49.0390   13.0360   50.3130 C.3       1 NH1        -0.0953
     26 C9         47.5430   11.3170   51.3090 C.3       1 NH1        -0.0953
     27 C11        43.4680   14.9260   47.6680 C.3       1 NH1        -0.0184
     28 C5         43.4340   14.6100   53.1600 C.2       1 NH1         0.1076
     29 O3         44.6790   15.0720   53.3100 O.3       1 NH1        -0.3202
     30 C4         42.2820   15.5390   53.4900 C.3       1 NH1         0.0510
     31 C22        39.8380   15.5100   54.1210 C.3       1 NH1        -0.0051
     32 C13        38.5880   14.7940   54.6730 C.3       1 NH1        -0.0471
     33 C28        37.3830   15.6100   54.1610 C.3       1 NH1        -0.0527
     34 C16        37.8970   16.5730   53.0530 C.3       1 NH1        -0.0527
     35 C19        39.3830   16.2610   52.8480 C.3       1 NH1        -0.0471
     36 H1         40.7985   11.0442   61.3050 H         1 NH1         0.2458
     37 H2         43.8283   11.9686   59.6844 H         1 NH1         0.0525
     38 H3         43.8233   13.4186   57.6683 H         1 NH1         0.0530
     39 H4         39.5303   13.5943   57.8189 H         1 NH1         0.0530
     40 H5         39.5348   12.1443   59.8321 H         1 NH1         0.0525
     41 H6         42.6615   14.9445   56.3229 H         1 NH1         0.0406
     42 H7         40.9024   15.2390   56.5368 H         1 NH1         0.0406
     43 H8         40.5139   13.0431   55.2780 H         1 NH1         0.0318
     44 H9         42.2640   13.0707   54.8742 H         1 NH1         0.0318
     45 H10        43.1588   13.6954   50.0052 H         1 NH1         0.0569
     46 H11        47.1749   14.9984   46.6220 H         1 NH1         0.1697
     47 H12        45.4482   15.2908   46.2820 H         1 NH1         0.1697
     48 H13        47.8987   13.9257   48.5746 H         1 NH1         0.0630
     49 H14        48.5177   13.2285   52.9587 H         1 NH1         0.0102
     50 H15        46.7372   13.4421   52.8550 H         1 NH1         0.0102
     51 H16        47.8325   14.6646   52.1253 H         1 NH1         0.0102
     52 H17        49.0605   12.4911   49.3577 H         1 NH1         0.0102
     53 H18        49.8436   12.6650   50.9649 H         1 NH1         0.0102
     54 H19        49.1846   14.1101   50.1258 H         1 NH1         0.0102
     55 H20        46.5776   11.1284   51.8014 H         1 NH1         0.0102
     56 H21        48.3613   11.0055   51.9749 H         1 NH1         0.0102
     57 H22        47.5946   10.7438   50.3716 H         1 NH1         0.0102
     58 H23        42.4928   14.7491   48.1452 H         1 NH1         0.0445
     59 H24        43.4716   14.4772   46.6637 H         1 NH1         0.0445
     60 H25        43.6453   16.0085   47.5865 H         1 NH1         0.0445
     61 H26        44.6542   15.9012   53.7729 H         1 NH1         0.2584
     62 H27        42.5508   16.2009   54.3264 H         1 NH1         0.0539
     63 H28        42.0160   16.1466   52.6125 H         1 NH1         0.0539
     64 H29        40.1385   16.2621   54.8653 H         1 NH1         0.0334
     65 H30        38.6055   14.7839   55.7728 H         1 NH1         0.0269
     66 H31        38.5398   13.7612   54.2975 H         1 NH1         0.0269
     67 H32        36.9455   16.1898   54.9871 H         1 NH1         0.0265
     68 H33        36.6223   14.9331   53.7450 H         1 NH1         0.0265
     69 H34        37.7702   17.6183   53.3713 H         1 NH1         0.0265
     70 H35        37.3425   16.4046   52.1181 H         1 NH1         0.0265
     71 H36        39.5218   15.6273   51.9597 H         1 NH1         0.0269
     72 H37        39.9563   17.1920   52.7275 H         1 NH1         0.0269
@<TRIPOS>BOND
     1    1    2 1  
     2    2    3 ar 
     3    2    7 ar 
     4    3    4 ar 
     5    4    5 ar 
     6    5    6 ar 
     7    5    8 1  
     8    6    7 ar 
     9    8    9 1  
    10    9   10 1  
    11   10   11 1  
    12   10   30 1  
    13   10   31 1  
    14   11   12 1  
    15   12   13 2  
    16   12   14 1  
    17   14   15 1  
    18   14   28 2  
    19   15   16 1  
    20   16   17 ar 
    21   16   22 ar 
    22   17   18 ar 
    23   18   19 ar 
    24   18   27 1  
    25   19   20 1  
    26   19   21 ar 
    27   21   22 ar 
    28   22   23 1  
    29   23   24 1  
    30   23   25 1  
    31   23   26 1  
    32   28   29 1  
    33   28   30 1  
    34   31   32 1  
    35   31   35 1  
    36   32   33 1  
    37   33   34 1  
    38   34   35 1  
    39    1   36 1  
    40    3   37 1  
    41    4   38 1  
    42    6   39 1  
    43    7   40 1  
    44    8   41 1  
    45    8   42 1  
    46    9   43 1  
    47    9   44 1  
    48   17   45 1  
    49   20   46 1  
    50   20   47 1  
    51   21   48 1  
    52   24   49 1  
    53   24   50 1  
    54   24   51 1  
    55   25   52 1  
    56   25   53 1  
    57   25   54 1  
    58   26   55 1  
    59   26   56 1  
    60   26   57 1  
    61   27   58 1  
    62   27   59 1  
    63   27   60 1  
    64   29   61 1  
    65   30   62 1  
    66   30   63 1  
    67   31   64 1  
    68   32   65 1  
    69   32   66 1  
    70   33   67 1  
    71   33   68 1  
    72   34   69 1  
    73   34   70 1  
    74   35   71 1  
    75   35   72 1  
@<TRIPOS>SUBSTRUCTURE
     1 NH1         1

