### 
### Created by X-TOOL on Mon Sep 10 21:13:10 2018
### 

@<TRIPOS>MOLECULE
4ap7_ligand
   36    39     1     0     0
SMALL
GAST_HUCK


@<TRIPOS>ATOM
      1 F24        18.8220   13.1340   46.6860 F         1 F47        -0.1811
      2 N5         18.2260   10.7990   39.2100 N.pl3     1 F47        -0.0751
      3 N7         17.6670   11.2910   37.2000 N.2       1 F47        -0.2651
      4 C18        18.2290   12.4830   42.6270 C.ar      1 F47         0.0101
      5 C23        17.6270   13.6240   43.2750 C.ar      1 F47        -0.0508
      6 C22        17.8580   13.7960   44.6440 C.ar      1 F47        -0.0251
      7 C1         18.0370   12.2320   41.1500 C.2       1 F47         0.1318
      8 C2         17.4940   13.2090   40.2520 C.2       1 F47         0.0642
      9 C6         17.7020   11.7930   38.4410 C.2       1 F47         0.2503
     10 C11        20.4960    8.5090   39.4520 C.ar      1 F47        -0.0363
     11 C13        22.9390    8.5490   38.9250 C.ar      1 F47        -0.0393
     12 N3         17.3410   12.9750   38.9510 N.2       1 F47        -0.2261
     13 C15        22.1990    8.6290   41.2380 C.ar      1 F47        -0.0393
     14 C12        21.5880    8.4960   38.4890 C.ar      1 F47        -0.0663
     15 C14        23.2720    8.6140   40.2710 C.ar      1 F47         0.0809
     16 O17        24.6220    8.6610   40.6300 O.3       1 F47        -0.3374
     17 C16        20.8020    8.5780   40.8570 C.ar      1 F47        -0.0663
     18 C10        19.0900    8.4520   39.0130 C.3       1 F47         0.0586
     19 C9         18.4950    9.7480   38.4780 C.2       1 F47         0.1836
     20 N4         18.4010   11.0270   40.6290 N.2       1 F47        -0.1091
     21 N8         18.1660   10.0290   37.2750 N.2       1 F47        -0.2662
     22 C19        19.0280   11.5680   43.3570 C.ar      1 F47        -0.0508
     23 C20        19.2490   11.7590   44.7330 C.ar      1 F47        -0.0251
     24 C21        18.6410   12.8920   45.3360 C.ar      1 F47         0.1352
     25 H1         17.0155   14.3251   42.7185 H         1 F47         0.0632
     26 H2         17.4213   14.6412   45.1636 H         1 F47         0.0611
     27 H3         17.1958   14.1781   40.6492 H         1 F47         0.1116
     28 H4         23.7320    8.5384   38.1860 H         1 F47         0.0526
     29 H5         22.4491    8.6805   42.2915 H         1 F47         0.0526
     30 H6         21.3679    8.4454   37.4288 H         1 F47         0.0535
     31 H7         24.7929    9.4621   41.1113 H         1 F47         0.2459
     32 H8         20.0156    8.5913   41.6030 H         1 F47         0.0535
     33 H9         18.4830    8.1354   39.8740 H         1 F47         0.0632
     34 H10        19.0184    7.6969   38.2163 H         1 F47         0.0632
     35 H11        19.4709   10.7169   42.8526 H         1 F47         0.0632
     36 H12        19.8574   11.0708   45.3085 H         1 F47         0.0611
@<TRIPOS>BOND
     1   24    1 1  
     2    2    9 1  
     3   19    2 1  
     4    2   20 1  
     5    9    3 2  
     6    3   21 1  
     7    4    5 ar 
     8    7    4 1  
     9    4   22 ar 
    10    5    6 ar 
    11    6   24 ar 
    12    7    8 1  
    13   20    7 2  
    14   12    8 2  
    15    9   12 1  
    16   10   14 ar 
    17   10   17 ar 
    18   18   10 1  
    19   14   11 ar 
    20   11   15 ar 
    21   13   15 ar 
    22   17   13 ar 
    23   15   16 1  
    24   18   19 1  
    25   19   21 2  
    26   22   23 ar 
    27   23   24 ar 
    28    5   25 1  
    29    6   26 1  
    30    8   27 1  
    31   11   28 1  
    32   13   29 1  
    33   14   30 1  
    34   16   31 1  
    35   17   32 1  
    36   18   33 1  
    37   18   34 1  
    38   22   35 1  
    39   23   36 1  
@<TRIPOS>SUBSTRUCTURE
     1 F47         1

