4ap7_ligand
  -I-interpret- 

 36 39  0  0  0  0  0  0  0  0999 V2000
   18.8220   13.1340   46.6860 F   0  0  0  0  0
   18.2260   10.7990   39.2100 N   0  0  0  0  0
   17.6670   11.2910   37.2000 N   0  0  0  0  0
   18.2290   12.4830   42.6270 C   0  0  0  0  0
   17.6270   13.6240   43.2750 C   0  0  0  0  0
   17.8580   13.7960   44.6440 C   0  0  0  0  0
   18.0370   12.2320   41.1500 C   0  0  0  0  0
   17.4940   13.2090   40.2520 C   0  0  0  0  0
   17.7020   11.7930   38.4410 C   0  0  0  0  0
   20.4960    8.5090   39.4520 C   0  0  0  0  0
   22.9390    8.5490   38.9250 C   0  0  0  0  0
   17.3410   12.9750   38.9510 N   0  0  0  0  0
   22.1990    8.6290   41.2380 C   0  0  0  0  0
   21.5880    8.4960   38.4890 C   0  0  0  0  0
   23.2720    8.6140   40.2710 C   0  0  0  0  0
   24.6220    8.6610   40.6300 O   0  0  0  0  0
   20.8020    8.5780   40.8570 C   0  0  0  0  0
   19.0900    8.4520   39.0130 C   0  0  0  0  0
   18.4950    9.7480   38.4780 C   0  0  0  0  0
   18.4010   11.0270   40.6290 N   0  0  0  0  0
   18.1660   10.0290   37.2750 N   0  0  0  0  0
   19.0280   11.5680   43.3570 C   0  0  0  0  0
   19.2490   11.7590   44.7330 C   0  0  0  0  0
   18.6410   12.8920   45.3360 C   0  0  0  0  0
   17.0121   14.3290   42.7155 H   0  0  0  0  0
   17.4189   14.6459   45.1664 H   0  0  0  0  0
   17.1956   14.1790   40.6496 H   0  0  0  0  0
   23.7363    8.5383   38.1819 H   0  0  0  0  0
   22.4505    8.6808   42.2973 H   0  0  0  0  0
   21.3667    8.4451   37.4229 H   0  0  0  0  0
   24.6964    8.7034   41.5862 H   0  0  0  0  0
   20.0113    8.5914   41.6071 H   0  0  0  0  0
   18.5070    8.1933   39.8969 H   0  0  0  0  0
   19.0591    7.7411   38.1873 H   0  0  0  0  0
   19.4734   10.7122   42.8498 H   0  0  0  0  0
   19.8608   11.0670   45.3117 H   0  0  0  0  0
 24  1  1  0  0  0
  2  9  4  0  0  0
 19  2  4  0  0  0
  2 20  4  0  0  0
  9  3  4  0  0  0
  3 21  4  0  0  0
  4  5  4  0  0  0
  7  4  1  0  0  0
  4 22  4  0  0  0
  5  6  4  0  0  0
  6 24  4  0  0  0
  7  8  4  0  0  0
 20  7  4  0  0  0
 12  8  4  0  0  0
  9 12  4  0  0  0
 10 14  4  0  0  0
 10 17  4  0  0  0
 18 10  1  0  0  0
 14 11  4  0  0  0
 11 15  4  0  0  0
 13 15  4  0  0  0
 17 13  4  0  0  0
 15 16  1  0  0  0
 18 19  1  0  0  0
 19 21  4  0  0  0
 22 23  4  0  0  0
 23 24  4  0  0  0
  5 25  1  0  0  0
  6 26  1  0  0  0
  8 27  1  0  0  0
 11 28  1  0  0  0
 13 29  1  0  0  0
 14 30  1  0  0  0
 16 31  1  0  0  0
 17 32  1  0  0  0
 18 33  1  0  0  0
 18 34  1  0  0  0
 22 35  1  0  0  0
 23 36  1  0  0  0
M  END
$$$$
