1hee_ligand
  -I-interpret- 

 28 28  0  0  0  0  0  0  0  0999 V2000
    6.0920    9.5800   -0.9080 N   0  0  0  0  0
    5.6080    9.2310   -2.2740 C   0  0  0  0  0
    6.8130    8.8410   -3.1520 C   0  0  0  0  0
    7.8680    9.3910   -3.1030 O   0  0  0  0  0
    4.8580   10.4090   -2.9440 C   0  0  0  0  0
    3.9950    9.9490   -4.0980 C   0  0  0  0  0
    2.7150    9.3780   -3.8580 C   0  0  0  0  0
    4.4530   10.0720   -5.4400 C   0  0  0  0  0
    1.9110    8.9400   -4.9380 C   0  0  0  0  0
    3.6470    9.6310   -6.5190 C   0  0  0  0  0
    2.3800    9.0660   -6.2680 C   0  0  0  0  0
    6.5240    7.8230   -3.9790 O   0  0  0  0  0
    6.8460    8.7450   -0.1460 C   0  0  0  0  0
    7.1910    7.6520   -0.5320 O   0  0  0  0  0
    7.2110    9.1660    1.0850 N   0  0  0  0  0
    6.7810   10.4360    1.4870 O   0  0  0  0  0
    5.8444   10.4926   -0.5256 H   0  0  0  0  0
    4.9100    8.3993   -2.1777 H   0  0  0  0  0
    5.5989   11.1088   -3.3305 H   0  0  0  0  0
    4.2111   10.8697   -2.1974 H   0  0  0  0  0
    2.3504    9.2768   -2.8358 H   0  0  0  0  0
    5.4315   10.5089   -5.6394 H   0  0  0  0  0
    0.9301    8.5054   -4.7454 H   0  0  0  0  0
    4.0068    9.7287   -7.5433 H   0  0  0  0  0
    1.7611    8.7260   -7.0983 H   0  0  0  0  0
    5.6160    7.5453   -3.8377 H   0  0  0  0  0
    7.7783    8.5806    1.6980 H   0  0  0  0  0
    7.1034   10.6161    2.3731 H   0  0  0  0  0
  6  7  4  0  0  0
  6  8  4  0  0  0
  7  9  4  0  0  0
  9 11  4  0  0  0
  8 10  4  0  0  0
  5  2  1  0  0  0
  2  3  1  0  0  0
  2  1  1  0  0  0
  3  4  2  0  0  0
 13 15  1  0  0  0
 13 14  2  0  0  0
 15 16  1  0  0  0
  1 13  1  0  0  0
  3 12  1  0  0  0
  5  6  1  0  0  0
 10 11  4  0  0  0
  1 17  1  0  0  0
  2 18  1  0  0  0
  5 19  1  0  0  0
  5 20  1  0  0  0
  7 21  1  0  0  0
  8 22  1  0  0  0
  9 23  1  0  0  0
 10 24  1  0  0  0
 11 25  1  0  0  0
 12 26  1  0  0  0
 15 27  1  0  0  0
 16 28  1  0  0  0
M  END
$$$$
