### 
### Created by X-TOOL on Mon Sep 10 21:12:48 2018
### 

@<TRIPOS>MOLECULE
1hee_ligand
   27    27     1     0     0
SMALL
GAST_HUCK


@<TRIPOS>ATOM
      1 N           6.0920    9.5800   -0.9080 N.am      1 LHY        -0.2546
      2 CA          5.6080    9.2310   -2.2740 C.3       1 LHY         0.1042
      3 C           6.8130    8.8410   -3.1520 C.2       1 LHY         0.0618
      4 O           7.8680    9.3910   -3.1030 O.co2     1 LHY        -0.5665
      5 CB          4.8580   10.4090   -2.9440 C.3       1 LHY         0.0157
      6 CG          3.9950    9.9490   -4.0980 C.ar      1 LHY        -0.0392
      7 CD1         2.7150    9.3780   -3.8580 C.ar      1 LHY        -0.0602
      8 CD2         4.4530   10.0720   -5.4400 C.ar      1 LHY        -0.0602
      9 CE1         1.9110    8.9400   -4.9380 C.ar      1 LHY        -0.0686
     10 CE2         3.6470    9.6310   -6.5190 C.ar      1 LHY        -0.0686
     11 CZ          2.3800    9.0660   -6.2680 C.ar      1 LHY        -0.0687
     12 OXT         6.5240    7.8230   -3.9790 O.co2     1 LHY        -0.5665
     13 C1          6.8460    8.7450   -0.1460 C.2       1 LHY         0.2829
     14 O1          7.1910    7.6520   -0.5320 O.2       1 LHY        -0.4008
     15 N2          7.2110    9.1660    1.0850 N.am      1 LHY        -0.1504
     16 O2          6.7810   10.4360    1.4870 O.3       1 LHY        -0.2719
     17 H1          5.8493   10.4747   -0.5331 H         1 LHY         0.1869
     18 H2          4.9222    8.3745   -2.1965 H         1 LHY         0.0746
     19 H3          5.5966   11.1325   -3.3195 H         1 LHY         0.0466
     20 H4          4.2174   10.8949   -2.1933 H         1 LHY         0.0466
     21 H5          2.3524    9.2774   -2.8414 H         1 LHY         0.0557
     22 H6          5.4261   10.5065   -5.6383 H         1 LHY         0.0557
     23 H7          0.9355    8.5078   -4.7464 H         1 LHY         0.0599
     24 H8          4.0048    9.7281   -7.5376 H         1 LHY         0.0599
     25 H9          1.7645    8.7278   -7.0937 H         1 LHY         0.0559
     26 H10         7.7672    8.5921    1.6860 H         1 LHY         0.2209
     27 H11         5.8314   10.4637    1.4825 H         1 LHY         0.2486
@<TRIPOS>BOND
     1    6    7 ar 
     2    6    8 ar 
     3    7    9 ar 
     4    9   11 ar 
     5    8   10 ar 
     6    5    2 1  
     7    2    3 1  
     8    2    1 1  
     9    3    4 ar 
    10   13   15 am 
    11   13   14 2  
    12   15   16 1  
    13    1   13 am 
    14    3   12 ar 
    15    5    6 1  
    16   10   11 ar 
    17    1   17 1  
    18    2   18 1  
    19    5   19 1  
    20    5   20 1  
    21    7   21 1  
    22    8   22 1  
    23    9   23 1  
    24   10   24 1  
    25   11   25 1  
    26   15   26 1  
    27   16   27 1  
@<TRIPOS>SUBSTRUCTURE
     1 LHY         1

