2qg2_ligand
  -I-interpret- 

 39 41  0  0  0  0  0  0  0  0999 V2000
    4.7270   29.3880   23.2380 C   0  0  0  0  0
    4.6090   30.5130   24.2690 C   0  0  0  0  0
    5.8680   31.2160   24.0760 N   0  0  0  0  0
    6.6810   30.6150   23.1650 C   0  0  0  0  0
    6.0120   29.6240   22.5660 O   0  0  0  0  0
    7.8220   30.9050   22.9030 O   0  0  0  0  0
    6.3140   32.3780   24.6500 N   0  0  0  0  0
    5.4300   33.2050   25.1140 C   0  0  0  0  0
    5.7870   34.4950   25.7130 C   0  0  0  0  0
    4.8140   35.5850   25.8450 C   0  0  0  0  0
    5.1940   36.8430   26.4270 C   0  0  0  0  0
    6.5390   37.0310   26.8820 C   0  0  0  0  0
    7.5090   35.9690   26.7620 C   0  0  0  0  0
    7.1350   34.7080   26.1800 C   0  0  0  0  0
    3.4500   35.4450   25.4020 C   0  0  0  0  0
    2.3500   35.3160   25.0040 C   0  0  0  0  0
    1.0430   35.2300   24.4770 C   0  0  0  0  0
    0.8770   35.7920   23.2010 C   0  0  0  0  0
   -0.4260   35.7140   22.6760 C   0  0  0  0  0
   -1.4840   35.1360   23.3400 N   0  0  0  0  0
   -1.2080   34.6200   24.5790 C   0  0  0  0  0
    0.0120   34.6390   25.1790 N   0  0  0  0  0
   -0.6980   36.2870   21.3230 C   0  0  0  0  0
   -2.1930   34.0640   25.2440 N   0  0  0  0  0
    3.8948   29.3953   22.5340 H   0  0  0  0  0
    4.6898   28.4044   23.7063 H   0  0  0  0  0
    4.4597   30.1570   25.2883 H   0  0  0  0  0
    3.7310   31.1435   24.1285 H   0  0  0  0  0
    4.3769   32.9298   25.0564 H   0  0  0  0  0
    4.4646   37.6474   26.5213 H   0  0  0  0  0
    6.8324   37.9839   27.3225 H   0  0  0  0  0
    8.5291   36.1232   27.1138 H   0  0  0  0  0
    7.8728   33.9105   26.0915 H   0  0  0  0  0
    1.6992   36.2557   22.6559 H   0  0  0  0  0
   -0.4682   37.3525   21.3282 H   0  0  0  0  0
   -0.0746   35.7831   20.5844 H   0  0  0  0  0
   -1.7490   36.1419   21.0730 H   0  0  0  0  0
   -3.1269   34.0265   24.8356 H   0  0  0  0  0
   -2.0248   33.6693   26.1694 H   0  0  0  0  0
  1  2  1  0  0  0
  1  5  1  0  0  0
  2  3  1  0  0  0
  3  4  1  0  0  0
  3  7  1  0  0  0
  4  5  1  0  0  0
  4  6  2  0  0  0
  7  8  2  0  0  0
  8  9  1  0  0  0
  9 10  4  0  0  0
  9 14  4  0  0  0
 10 11  4  0  0  0
 10 15  1  0  0  0
 11 12  4  0  0  0
 12 13  4  0  0  0
 13 14  4  0  0  0
 15 16  3  0  0  0
 16 17  1  0  0  0
 17 18  4  0  0  0
 17 22  4  0  0  0
 18 19  4  0  0  0
 19 20  4  0  0  0
 19 23  1  0  0  0
 20 21  4  0  0  0
 21 22  4  0  0  0
 21 24  1  0  0  0
  1 25  1  0  0  0
  1 26  1  0  0  0
  2 27  1  0  0  0
  2 28  1  0  0  0
  8 29  1  0  0  0
 11 30  1  0  0  0
 12 31  1  0  0  0
 13 32  1  0  0  0
 14 33  1  0  0  0
 18 34  1  0  0  0
 23 35  1  0  0  0
 23 36  1  0  0  0
 23 37  1  0  0  0
 24 38  1  0  0  0
 24 39  1  0  0  0
M  END
$$$$
