### 
### Created by X-TOOL on Mon Sep 10 21:12:58 2018
### 

@<TRIPOS>MOLECULE
2qg2_ligand
   39    41     1     0     0
SMALL
GAST_HUCK


@<TRIPOS>ATOM
      1 C1          4.7270   29.3880   23.2380 C.3       1 A91         0.1062
      2 C2          4.6090   30.5130   24.2690 C.3       1 A91         0.1056
      3 N3          5.8680   31.2160   24.0760 N.am      1 A91        -0.1216
      4 C4          6.6810   30.6150   23.1650 C.2       1 A91         0.3751
      5 O5          6.0120   29.6240   22.5660 O.3       1 A91        -0.2536
      6 O6          7.8220   30.9050   22.9030 O.2       1 A91        -0.3620
      7 N7          6.3140   32.3780   24.6500 N.2       1 A91        -0.1754
      8 C8          5.4300   33.2050   25.1140 C.2       1 A91         0.0360
      9 C9          5.7870   34.4950   25.7130 C.ar      1 A91        -0.0009
     10 C10         4.8140   35.5850   25.8450 C.ar      1 A91         0.0346
     11 C11         5.1940   36.8430   26.4270 C.ar      1 A91        -0.0472
     12 C12         6.5390   37.0310   26.8820 C.ar      1 A91        -0.0624
     13 C13         7.5090   35.9690   26.7620 C.ar      1 A91        -0.0634
     14 C14         7.1350   34.7080   26.1800 C.ar      1 A91        -0.0555
     15 C15         3.4500   35.4450   25.4020 C.1       1 A91        -0.0520
     16 C16         2.3500   35.3160   25.0040 C.1       1 A91        -0.0403
     17 C17         1.0430   35.2300   24.4770 C.ar      1 A91         0.0866
     18 C18         0.8770   35.7920   23.2010 C.ar      1 A91        -0.0107
     19 C19        -0.4260   35.7140   22.6760 C.ar      1 A91         0.0261
     20 N20        -1.4840   35.1360   23.3400 N.ar      1 A91        -0.2591
     21 C21        -1.2080   34.6200   24.5790 C.ar      1 A91         0.1759
     22 N22         0.0120   34.6390   25.1790 N.ar      1 A91        -0.2544
     23 C23        -0.6980   36.2870   21.3230 C.3       1 A91        -0.0132
     24 N24        -2.1930   34.0640   25.2440 N.pl3     1 A91        -0.3053
     25 H1          3.8983   29.4361   22.5162 H         1 A91         0.0639
     26 H2          4.7245   28.4064   23.7344 H         1 A91         0.0639
     27 H3          4.5238   30.1145   25.2907 H         1 A91         0.0648
     28 H4          3.7484   31.1643   24.0565 H         1 A91         0.0648
     29 H5          4.3778   32.9301   25.0565 H         1 A91         0.0715
     30 H6          4.4686   37.6430   26.5208 H         1 A91         0.0632
     31 H7          6.8308   37.9786   27.3201 H         1 A91         0.0595
     32 H8          8.5234   36.1224   27.1119 H         1 A91         0.0619
     33 H9          7.8687   33.9149   26.0920 H         1 A91         0.0599
     34 H10         1.6946   36.2532   22.6589 H         1 A91         0.0604
     35 H11        -1.7584   36.1412   21.0695 H         1 A91         0.0441
     36 H12        -0.0694   35.7793   20.5766 H         1 A91         0.0441
     37 H13        -0.4665   37.3623   21.3269 H         1 A91         0.0441
     38 H14        -3.1359   34.0254   24.8312 H         1 A91         0.1824
     39 H15        -2.0234   33.6662   26.1788 H         1 A91         0.1824
@<TRIPOS>BOND
     1    1    2 1  
     2    1    5 1  
     3    2    3 1  
     4    3    4 am 
     5    3    7 1  
     6    4    5 1  
     7    4    6 2  
     8    7    8 2  
     9    8    9 1  
    10    9   10 ar 
    11    9   14 ar 
    12   10   11 ar 
    13   10   15 1  
    14   11   12 ar 
    15   12   13 ar 
    16   13   14 ar 
    17   15   16 3  
    18   16   17 1  
    19   17   18 ar 
    20   17   22 ar 
    21   18   19 ar 
    22   19   20 ar 
    23   19   23 1  
    24   20   21 ar 
    25   21   22 ar 
    26   21   24 1  
    27    1   25 1  
    28    1   26 1  
    29    2   27 1  
    30    2   28 1  
    31    8   29 1  
    32   11   30 1  
    33   12   31 1  
    34   13   32 1  
    35   14   33 1  
    36   18   34 1  
    37   23   35 1  
    38   23   36 1  
    39   23   37 1  
    40   24   38 1  
    41   24   39 1  
@<TRIPOS>SUBSTRUCTURE
     1 A91         1

