2pri_ligand
     RDKit          3D

 28 28  0  0  0  0  0  0  0  0999 V2000
   -7.8407   23.4195    3.5569 C   0  0  1  0  0  0  0  0  0  0  0  0
   -6.9036   23.7559    4.7843 C   0  0  0  0  0  0  0  0  0  0  0  0
   -7.6660   23.6626    6.1365 C   0  0  2  0  0  0  0  0  0  0  0  0
   -8.9681   24.5097    6.1133 C   0  0  1  0  0  0  0  0  0  0  0  0
   -9.8584   24.1293    4.8354 C   0  0  1  0  0  0  0  0  0  0  0  0
  -11.0116   25.0808    4.6677 C   0  0  0  0  0  0  0  0  0  0  0  0
   -8.1775   22.0328    3.4416 O   0  0  0  0  0  0  0  0  0  0  0  0
   -6.8782   24.0934    7.2372 O   0  0  0  0  0  0  0  0  0  0  0  0
   -9.6700   24.2480    7.3318 O   0  0  0  0  0  0  0  0  0  0  0  0
   -9.0658   24.2228    3.6260 O   0  0  0  0  0  0  0  0  0  0  0  0
  -11.2007   25.3927    3.3116 O   0  0  0  0  0  0  0  0  0  0  0  0
  -12.5898   25.1449    2.4887 P   0  0  2  0  0  0  0  0  0  0  0  0
  -12.6491   23.6593    2.2449 O   0  0  0  0  0  0  0  0  0  0  0  0
  -12.5105   25.8610    1.1806 O   0  0  0  0  0  0  0  0  0  0  0  0
  -13.6320   25.7629    3.4250 O   0  0  0  0  0  0  0  0  0  0  0  0
   -7.2671   23.6693    2.6644 H   0  0  0  0  0  0  0  0  0  0  0  0
   -6.5386   24.7762    4.6668 H   0  0  0  0  0  0  0  0  0  0  0  0
   -6.0881   23.0330    4.8005 H   0  0  0  0  0  0  0  0  0  0  0  0
   -7.9061   22.6070    6.2638 H   0  0  0  0  0  0  0  0  0  0  0  0
   -8.7393   25.5727    6.0365 H   0  0  0  0  0  0  0  0  0  0  0  0
  -10.2229   23.1148    4.9971 H   0  0  0  0  0  0  0  0  0  0  0  0
  -10.7952   25.9985    5.2147 H   0  0  0  0  0  0  0  0  0  0  0  0
  -11.9168   24.6105    5.0520 H   0  0  0  0  0  0  0  0  0  0  0  0
   -7.4059   21.5402    3.1523 H   0  0  0  0  0  0  0  0  0  0  0  0
   -6.0186   23.6674    7.2003 H   0  0  0  0  0  0  0  0  0  0  0  0
   -9.0842   23.8018    7.9477 H   0  0  0  0  0  0  0  0  0  0  0  0
  -11.7597   23.2984    2.2572 H   0  0  0  0  0  0  0  0  0  0  0  0
  -13.4148   26.6852    3.5795 H   0  0  0  0  0  0  0  0  0  0  0  0
  1  2  1  0
  1  7  1  0
  1 10  1  0
  2  3  1  0
  3  4  1  0
  3  8  1  0
  4  5  1  0
  4  9  1  0
  5  6  1  0
  5 10  1  0
  6 11  1  0
 12 11  1  1
 12 13  1  0
 12 14  2  0
 12 15  1  0
  1 16  1  6
  2 17  1  0
  2 18  1  0
  3 19  1  1
  4 20  1  6
  5 21  1  1
  6 22  1  0
  6 23  1  0
  7 24  1  0
  8 25  1  0
  9 26  1  0
 13 27  1  0
 15 28  1  0
M  END
