6g27_ligand
  -I-interpret- 

 40 42  0  0  0  0  0  0  0  0999 V2000
   -4.3000    7.6120  -20.6910 N   0  0  0  0  0
   -3.6990    7.7950  -19.5340 C   0  0  0  0  0
   -3.8860    6.8750  -18.4660 C   0  0  0  0  0
   -4.6970    5.7880  -18.6960 C   0  0  0  0  0
   -5.6840    6.4670  -22.2770 C   0  0  0  0  0
   -3.2380    7.0810  -17.1190 C   0  0  0  0  0
   -7.6450    7.2510  -23.7060 C   0  0  0  0  0
   -1.4570    8.8760  -19.2720 C   0  0  0  0  0
   -1.2640   11.2690  -19.1180 C   0  0  0  0  0
   -5.0640    6.5900  -20.9340 N   0  0  0  0  0
   -0.6760   10.0160  -19.1440 C   0  0  0  0  0
   -6.9990    7.2690  -22.3090 C   0  0  0  0  0
   -6.0190    4.6820  -20.2020 O   0  0  0  0  0
   -3.4320   10.2550  -19.3180 C   0  0  0  0  0
   -2.8470    8.9960  -19.3700 C   0  0  0  0  0
   -6.6860    7.7120  -24.7260 N   0  3  0  0  0
   -4.7390    6.9200  -23.4080 C   0  0  0  0  0
   -2.6390   11.3820  -19.1990 C   0  0  0  0  0
   -5.4720    6.8770  -24.7610 C   0  0  0  0  0
   -5.2930    5.6510  -19.9800 C   0  0  0  0  0
   -4.8782    5.0505  -17.9141 H   0  0  0  0  0
   -5.8922    5.4118  -22.4540 H   0  0  0  0  0
   -4.0107    7.1703  -16.3554 H   0  0  0  0  0
   -2.5972    6.2291  -16.8914 H   0  0  0  0  0
   -2.6397    7.9919  -17.1406 H   0  0  0  0  0
   -8.5077    7.9172  -23.7052 H   0  0  0  0  0
   -7.9489    6.2311  -23.9418 H   0  0  0  0  0
   -0.9893    7.8917  -19.2960 H   0  0  0  0  0
   -0.6453   12.1624  -19.0340 H   0  0  0  0  0
    0.4071    9.9242  -19.0634 H   0  0  0  0  0
   -6.7761    8.3035  -22.0477 H   0  0  0  0  0
   -7.6949    6.8147  -21.6037 H   0  0  0  0  0
   -4.5161   10.3547  -19.3710 H   0  0  0  0  0
   -6.4098    8.6664  -24.4954 H   0  0  0  0  0
   -7.1388    7.6545  -25.6382 H   0  0  0  0  0
   -3.8801    6.2499  -23.4457 H   0  0  0  0  0
   -4.4108    7.9408  -23.2119 H   0  0  0  0  0
   -3.1027   12.3680  -19.1688 H   0  0  0  0  0
   -4.8052    7.2589  -25.5340 H   0  0  0  0  0
   -5.7600    5.8471  -24.9719 H   0  0  0  0  0
  2  1  2  0  0  0
  1 10  1  0  0  0
  2  3  1  0  0  0
 15  2  1  0  0  0
  3  4  2  0  0  0
  3  6  1  0  0  0
  4 20  1  0  0  0
 10  5  1  0  0  0
  5 12  1  0  0  0
  5 17  1  0  0  0
 12  7  1  0  0  0
  7 16  1  0  0  0
  8 11  4  0  0  0
  8 15  4  0  0  0
 11  9  4  0  0  0
  9 18  4  0  0  0
 10 20  1  0  0  0
 20 13  2  0  0  0
 15 14  4  0  0  0
 14 18  4  0  0  0
 16 19  1  0  0  0
 17 19  1  0  0  0
  4 21  1  0  0  0
  5 22  1  0  0  0
  6 23  1  0  0  0
  6 24  1  0  0  0
  6 25  1  0  0  0
  7 26  1  0  0  0
  7 27  1  0  0  0
  8 28  1  0  0  0
  9 29  1  0  0  0
 11 30  1  0  0  0
 12 31  1  0  0  0
 12 32  1  0  0  0
 14 33  1  0  0  0
 16 34  1  0  0  0
 16 35  1  0  0  0
 17 36  1  0  0  0
 17 37  1  0  0  0
 18 38  1  0  0  0
 19 39  1  0  0  0
 19 40  1  0  0  0
M  END
$$$$
