### 
### Created by X-TOOL on Mon Aug  2 16:13:27 2021
### 

@<TRIPOS>MOLECULE
6g27_ligand
   40    42     1     0     0
SMALL
GAST_HUCK


@<TRIPOS>ATOM
      1 N1         -4.3000    7.6120  -20.6910 N.2       1 EHE        -0.1421
      2 C4         -3.6990    7.7950  -19.5340 C.2       1 EHE         0.0959
      3 C5         -3.8860    6.8750  -18.4660 C.2       1 EHE        -0.0138
      4 C6         -4.6970    5.7880  -18.6960 C.2       1 EHE         0.0052
      5 C7         -5.6840    6.4670  -22.2770 C.3       1 EHE         0.1055
      6 C13        -3.2380    7.0810  -17.1190 C.3       1 EHE        -0.0245
      7 C15        -7.6450    7.2510  -23.7060 C.3       1 EHE        -0.0306
      8 C17        -1.4570    8.8760  -19.2720 C.ar      1 EHE        -0.0563
      9 C20        -1.2640   11.2690  -19.1180 C.ar      1 EHE        -0.0643
     10 N2         -5.0640    6.5900  -20.9340 N.am      1 EHE        -0.1365
     11 C18        -0.6760   10.0160  -19.1440 C.ar      1 EHE        -0.0640
     12 C11        -6.9990    7.2690  -22.3090 C.3       1 EHE         0.0219
     13 O8         -6.0190    4.6820  -20.2020 O.2       1 EHE        -0.4182
     14 C16        -3.4320   10.2550  -19.3180 C.ar      1 EHE        -0.0563
     15 C9         -2.8470    8.9960  -19.3700 C.ar      1 EHE        -0.0047
     16 N10        -6.6860    7.7120  -24.7260 N.4       1 EHE         0.2271
     17 C12        -4.7390    6.9200  -23.4080 C.3       1 EHE         0.0219
     18 C19        -2.6390   11.3820  -19.1990 C.ar      1 EHE        -0.0640
     19 C14        -5.4720    6.8770  -24.7610 C.3       1 EHE        -0.0306
     20 C3         -5.2930    5.6510  -19.9800 C.2       1 EHE         0.2154
     21 H1         -4.8781    5.0512  -17.9148 H         1 EHE         0.0451
     22 H2         -5.9219    5.4063  -22.4450 H         1 EHE         0.0700
     23 H3         -2.6338    8.0000  -17.1395 H         1 EHE         0.0424
     24 H4         -2.5909    6.2219  -16.8881 H         1 EHE         0.0424
     25 H5         -4.0168    7.1713  -16.3474 H         1 EHE         0.0424
     26 H6         -8.5218    7.9152  -23.7076 H         1 EHE         0.0815
     27 H7         -7.9617    6.2250  -23.9449 H         1 EHE         0.0815
     28 H8         -0.9919    7.8971  -19.2959 H         1 EHE         0.0601
     29 H9         -0.6487   12.1575  -19.0345 H         1 EHE         0.0596
     30 H10         0.4012    9.9247  -19.0639 H         1 EHE         0.0611
     31 H11        -6.7875    8.3112  -22.0279 H         1 EHE         0.0350
     32 H12        -7.7019    6.8296  -21.5859 H         1 EHE         0.0350
     33 H13        -4.5102   10.3541  -19.3707 H         1 EHE         0.0601
     34 H14        -6.4214    8.6621  -24.5179 H         1 EHE         0.2013
     35 H15        -7.1307    7.6774  -25.6299 H         1 EHE         0.2013
     36 H16        -3.8682    6.2489  -23.4449 H         1 EHE         0.0350
     37 H17        -4.4016    7.9480  -23.2099 H         1 EHE         0.0350
     38 H18        -3.1001   12.3626  -19.1690 H         1 EHE         0.0611
     39 H19        -4.7997    7.2510  -25.5472 H         1 EHE         0.0815
     40 H20        -5.7554    5.8379  -24.9846 H         1 EHE         0.0815
@<TRIPOS>BOND
     1    2    1 2  
     2    1   10 1  
     3    2    3 1  
     4   15    2 1  
     5    3    4 2  
     6    3    6 1  
     7    4   20 1  
     8   10    5 1  
     9    5   12 1  
    10    5   17 1  
    11   12    7 1  
    12    7   16 1  
    13    8   11 ar 
    14    8   15 ar 
    15   11    9 ar 
    16    9   18 ar 
    17   10   20 am 
    18   20   13 2  
    19   15   14 ar 
    20   14   18 ar 
    21   16   19 1  
    22   17   19 1  
    23    4   21 1  
    24    5   22 1  
    25    6   23 1  
    26    6   24 1  
    27    6   25 1  
    28    7   26 1  
    29    7   27 1  
    30    8   28 1  
    31    9   29 1  
    32   11   30 1  
    33   12   31 1  
    34   12   32 1  
    35   14   33 1  
    36   16   34 1  
    37   16   35 1  
    38   17   36 1  
    39   17   37 1  
    40   18   38 1  
    41   19   39 1  
    42   19   40 1  
@<TRIPOS>SUBSTRUCTURE
     1 EHE         1

