5c28_ligand
  -I-interpret- 

 22 23  0  0  0  0  0  0  0  0999 V2000
    4.3910   11.6160   43.0560 C   0  0  0  0  0
    3.9510   13.1040   41.3420 C   0  0  0  0  0
    3.2290   13.9100   42.1270 N   0  0  0  0  0
    4.1320   13.4590   39.9290 C   0  0  0  0  0
    4.4490   14.8690   39.5240 C   0  0  0  0  0
    3.1100   13.5230   43.3930 C   0  0  0  0  0
    4.5250   11.9650   41.7660 N   0  0  0  0  0
    3.6650   12.3890   43.9400 C   0  0  0  0  0
    5.0070   10.4160   43.4630 N   0  0  0  0  0
    3.4580   12.0800   45.3910 C   0  0  0  0  0
    3.0920   14.2910   39.2340 C   0  0  0  0  0
    2.1860   14.5780   44.3610 Cl  0  0  0  0  0
    4.5996   12.4906   39.7510 H   0  0  0  0  0
    5.2355   15.4116   38.9995 H   0  0  0  0  0
    4.8767   15.7695   39.9647 H   0  0  0  0  0
    5.5264    9.8548   42.7879 H   0  0  0  0  0
    4.9336   10.1084   44.4327 H   0  0  0  0  0
    2.9533   11.1188   45.4881 H   0  0  0  0  0
    4.4243   12.0368   45.8934 H   0  0  0  0  0
    2.8463   12.8604   45.8437 H   0  0  0  0  0
    2.0436   14.5620   39.3587 H   0  0  0  0  0
    2.4018   14.2046   38.3948 H   0  0  0  0  0
  7  1  4  0  0  0
  1  8  4  0  0  0
  1  9  1  0  0  0
  2  3  4  0  0  0
  2  4  1  0  0  0
  2  7  4  0  0  0
  3  6  4  0  0  0
  4  5  1  0  0  0
  4 11  1  0  0  0
  5 11  1  0  0  0
  6  8  4  0  0  0
  6 12  1  0  0  0
  8 10  1  0  0  0
  4 13  1  0  0  0
  5 14  1  0  0  0
  5 15  1  0  0  0
  9 16  1  0  0  0
  9 17  1  0  0  0
 10 18  1  0  0  0
 10 19  1  0  0  0
 10 20  1  0  0  0
 11 21  1  0  0  0
 11 22  1  0  0  0
M  END
$$$$
