6cn5_ligand
  -I-interpret- 

 66 70  0  0  0  0  0  0  0  0999 V2000
   -6.4770   31.8310   -1.9120 C   0  0  0  0  0
   -6.3630   31.1930   -4.4160 C   0  0  0  0  0
   -7.7020   29.9680   -2.4300 C   0  0  0  0  0
   -6.7790   31.0100   -2.9590 C   0  0  0  0  0
   -8.4000   28.8740   -2.9480 C   0  0  0  0  0
   -6.6420   34.2360   -7.1660 C   0  0  0  0  0
   -5.9220   35.6020   -7.2960 C   0  0  0  0  0
   -7.7800   34.3090   -7.5790 O   0  0  0  0  0
  -11.1840   26.9320   -2.7970 C   0  0  0  0  0
  -11.9500   27.7860   -2.3730 O   0  0  0  0  0
   -7.8610   30.2370   -1.0610 C   0  0  0  0  0
   -7.0880   31.3440   -0.7780 N   0  0  0  0  0
   -8.6790   29.4260   -0.2410 C   0  0  0  0  0
   -9.1880   28.0890   -2.1260 C   0  0  0  0  0
   -7.6580   31.5770   -5.2110 C   0  0  0  0  0
   -5.2650   32.2860   -4.5930 C   0  0  0  0  0
   -9.3220   28.3530   -0.7520 C   0  0  0  0  0
   -9.8320   26.9950   -2.6890 N   0  0  0  0  0
   -7.3390   31.9230   -6.7070 C   0  0  0  0  0
   -5.0120   32.6450   -6.0690 C   0  0  0  0  0
   -6.2960   33.0020   -6.6870 N   0  0  0  0  0
  -11.7560   25.7770   -3.4450 C   0  0  0  0  0
  -11.0620   25.1430   -4.3870 N   0  0  0  0  0
  -11.5910   24.0940   -5.0460 C   0  0  0  0  0
  -12.8750   23.6210   -4.7580 C   0  0  0  0  0
  -13.6200   24.2870   -3.7340 C   0  0  0  0  0
  -13.0520   25.3800   -3.0540 C   0  0  0  0  0
  -14.9080   23.8810   -3.2620 C   0  0  0  0  0
  -15.9180   23.5480   -2.8760 N   0  0  0  0  0
   -5.0690   36.0710   -6.1460 C   0  0  0  0  0
   -4.4740   37.4820   -6.3890 C   0  0  0  0  0
   -4.2320   37.9820   -7.8440 C   0  0  0  0  0
   -4.9140   37.2240   -8.9860 C   0  0  0  0  0
   -5.2510   35.7830   -8.6710 C   0  0  0  0  0
   -7.0240   31.8960    0.5900 C   0  0  0  0  0
   -5.8550   32.7246   -1.9644 H   0  0  0  0  0
   -5.9215   30.2690   -4.7895 H   0  0  0  0  0
   -8.3228   28.6372   -4.0092 H   0  0  0  0  0
   -6.7536   36.3031   -7.2258 H   0  0  0  0  0
   -8.7922   29.6691    0.8155 H   0  0  0  0  0
   -8.1009   32.4557   -4.7422 H   0  0  0  0  0
   -8.3374   30.7249   -5.1929 H   0  0  0  0  0
   -4.3350   31.8945   -4.1808 H   0  0  0  0  0
   -5.6065   33.1874   -4.0842 H   0  0  0  0  0
   -9.9287   27.7091   -0.1153 H   0  0  0  0  0
   -9.2720   26.2146   -3.0320 H   0  0  0  0  0
   -8.2357   32.2591   -7.2277 H   0  0  0  0  0
   -6.9781   31.0437   -7.2406 H   0  0  0  0  0
   -4.5718   31.7943   -6.5892 H   0  0  0  0  0
   -4.3204   33.4849   -6.1349 H   0  0  0  0  0
  -11.0044   23.6023   -5.8220 H   0  0  0  0  0
  -13.2951   22.7716   -5.2967 H   0  0  0  0  0
  -13.5899   25.8975   -2.2597 H   0  0  0  0  0
   -4.2414   35.3708   -6.0323 H   0  0  0  0  0
   -5.6978   36.1185   -5.2569 H   0  0  0  0  0
   -3.4792   37.4394   -5.9455 H   0  0  0  0  0
   -5.2198   38.1666   -5.9851 H   0  0  0  0  0
   -3.1622   37.8642   -8.0165 H   0  0  0  0  0
   -4.6469   38.9894   -7.8767 H   0  0  0  0  0
   -4.2153   37.2122   -9.8225 H   0  0  0  0  0
   -5.8555   37.7342   -9.1895 H   0  0  0  0  0
   -5.9528   35.4351   -9.4289 H   0  0  0  0  0
   -4.3172   35.2209   -8.6589 H   0  0  0  0  0
   -5.9878   31.9069    0.9279 H   0  0  0  0  0
   -7.4179   32.9123    0.5891 H   0  0  0  0  0
   -7.6192   31.2748    1.2593 H   0  0  0  0  0
  4  1  4  0  0  0
  1 12  4  0  0  0
  2  4  1  0  0  0
 15  2  1  0  0  0
  2 16  1  0  0  0
  4  3  4  0  0  0
  3  5  4  0  0  0
  3 11  4  0  0  0
  5 14  4  0  0  0
  6  7  1  0  0  0
  6  8  2  0  0  0
 21  6  1  0  0  0
  7 30  1  0  0  0
  7 34  1  0  0  0
  9 10  2  0  0  0
 18  9  1  0  0  0
  9 22  1  0  0  0
 11 12  4  0  0  0
 11 13  4  0  0  0
 12 35  1  0  0  0
 13 17  4  0  0  0
 14 17  4  0  0  0
 14 18  1  0  0  0
 19 15  1  0  0  0
 16 20  1  0  0  0
 19 21  1  0  0  0
 20 21  1  0  0  0
 22 23  4  0  0  0
 22 27  4  0  0  0
 23 24  4  0  0  0
 24 25  4  0  0  0
 25 26  4  0  0  0
 26 27  4  0  0  0
 26 28  1  0  0  0
 28 29  3  0  0  0
 30 31  1  0  0  0
 31 32  1  0  0  0
 32 33  1  0  0  0
 33 34  1  0  0  0
  1 36  1  0  0  0
  2 37  1  0  0  0
  5 38  1  0  0  0
  7 39  1  0  0  0
 13 40  1  0  0  0
 15 41  1  0  0  0
 15 42  1  0  0  0
 16 43  1  0  0  0
 16 44  1  0  0  0
 17 45  1  0  0  0
 18 46  1  0  0  0
 19 47  1  0  0  0
 19 48  1  0  0  0
 20 49  1  0  0  0
 20 50  1  0  0  0
 24 51  1  0  0  0
 25 52  1  0  0  0
 27 53  1  0  0  0
 30 54  1  0  0  0
 30 55  1  0  0  0
 31 56  1  0  0  0
 31 57  1  0  0  0
 32 58  1  0  0  0
 32 59  1  0  0  0
 33 60  1  0  0  0
 33 61  1  0  0  0
 34 62  1  0  0  0
 34 63  1  0  0  0
 35 64  1  0  0  0
 35 65  1  0  0  0
 35 66  1  0  0  0
M  END
$$$$
