### 
### Created by X-TOOL on Wed Jan  1 15:39:35 2020
### 

@<TRIPOS>MOLECULE
6cn5_ligand
   66    70     1     0     0
SMALL
GAST_HUCK


@<TRIPOS>ATOM
      1 C11        -6.4770   31.8310   -1.9120 C.2       1 F7M         0.0161
      2 C10        -6.3630   31.1930   -4.4160 C.3       1 F7M        -0.0218
      3 C6         -7.7020   29.9680   -2.4300 C.ar      1 F7M        -0.0356
      4 C7         -6.7790   31.0100   -2.9590 C.2       1 F7M        -0.0481
      5 C9         -8.4000   28.8740   -2.9480 C.ar      1 F7M        -0.0571
      6 C2         -6.6420   34.2360   -7.1660 C.2       1 F7M         0.1815
      7 C1         -5.9220   35.6020   -7.2960 C.3       1 F7M         0.0488
      8 O3         -7.7800   34.3090   -7.5790 O.2       1 F7M        -0.3966
      9 C4        -11.1840   26.9320   -2.7970 C.2       1 F7M         0.2502
     10 O5        -11.9500   27.7860   -2.3730 O.2       1 F7M        -0.3688
     11 C8         -7.8610   30.2370   -1.0610 C.ar      1 F7M         0.0505
     12 N12        -7.0880   31.3440   -0.7780 N.pl3     1 F7M        -0.2837
     13 C13        -8.6790   29.4260   -0.2410 C.ar      1 F7M        -0.0525
     14 C14        -9.1880   28.0890   -2.1260 C.ar      1 F7M         0.0483
     15 C15        -7.6580   31.5770   -5.2110 C.3       1 F7M        -0.0255
     16 C16        -5.2650   32.2860   -4.5930 C.3       1 F7M        -0.0255
     17 C17        -9.3220   28.3530   -0.7520 C.ar      1 F7M        -0.0523
     18 N18        -9.8320   26.9950   -2.6890 N.am      1 F7M        -0.2388
     19 C19        -7.3390   31.9230   -6.7070 C.3       1 F7M         0.0352
     20 C20        -5.0120   32.6450   -6.0690 C.3       1 F7M         0.0352
     21 N21        -6.2960   33.0020   -6.6870 N.am      1 F7M        -0.2728
     22 C22       -11.7560   25.7770   -3.4450 C.ar      1 F7M         0.1389
     23 N23       -11.0620   25.1430   -4.3870 N.ar      1 F7M        -0.2660
     24 C24       -11.5910   24.0940   -5.0460 C.ar      1 F7M         0.0278
     25 C25       -12.8750   23.6210   -4.7580 C.ar      1 F7M         0.0044
     26 C26       -13.6200   24.2870   -3.7340 C.ar      1 F7M         0.1204
     27 C27       -13.0520   25.3800   -3.0540 C.ar      1 F7M         0.0208
     28 C28       -14.9080   23.8810   -3.2620 C.1       1 F7M         0.1144
     29 N29       -15.9180   23.5480   -2.8760 N.1       1 F7M        -0.3201
     30 C30        -5.0690   36.0710   -6.1460 C.3       1 F7M        -0.0332
     31 C31        -4.4740   37.4820   -6.3890 C.3       1 F7M        -0.0507
     32 C32        -4.2320   37.9820   -7.8440 C.3       1 F7M        -0.0528
     33 C33        -4.9140   37.2240   -8.9860 C.3       1 F7M        -0.0507
     34 C34        -5.2510   35.7830   -8.6710 C.3       1 F7M        -0.0332
     35 C35        -7.0240   31.8960    0.5900 C.3       1 F7M         0.0354
     36 H1         -5.8556   32.7238   -1.9644 H         1 F7M         0.0790
     37 H2         -5.9671   30.2408   -4.7987 H         1 F7M         0.0383
     38 H3         -8.3232   28.6385   -4.0033 H         1 F7M         0.0387
     39 H4         -6.7509   36.3251   -7.3024 H         1 F7M         0.0538
     40 H5         -8.7916   29.6678    0.8097 H         1 F7M         0.0520
     41 H6         -8.1227   32.4525   -4.7340 H         1 F7M         0.0301
     42 H7         -8.3582   30.7291   -5.1828 H         1 F7M         0.0301
     43 H8         -4.3263   31.9151   -4.1558 H         1 F7M         0.0301
     44 H9         -5.5840   33.1940   -4.0603 H         1 F7M         0.0301
     45 H10        -9.9254   27.7126   -0.1188 H         1 F7M         0.0454
     46 H11        -9.2829   26.2299   -3.0253 H         1 F7M         0.2216
     47 H12        -8.2462   32.2821   -7.2149 H         1 F7M         0.0523
     48 H13        -6.9546   31.0338   -7.2281 H         1 F7M         0.0523
     49 H14        -4.5758   31.7811   -6.5918 H         1 F7M         0.0523
     50 H15        -4.3205   33.4982   -6.1304 H         1 F7M         0.0523
     51 H16       -11.0076   23.6050   -5.8177 H         1 F7M         0.0863
     52 H17       -13.2928   22.7763   -5.2937 H         1 F7M         0.0840
     53 H18       -13.5870   25.8946   -2.2640 H         1 F7M         0.0862
     54 H19        -4.2428   35.3586   -6.0054 H         1 F7M         0.0292
     55 H20        -5.6870   36.1000   -5.2365 H         1 F7M         0.0292
     56 H21        -3.5007   37.5093   -5.8773 H         1 F7M         0.0267
     57 H22        -5.1578   38.2016   -5.9150 H         1 F7M         0.0267
     58 H23        -3.1481   37.9438   -8.0272 H         1 F7M         0.0265
     59 H24        -4.5756   39.0258   -7.8929 H         1 F7M         0.0265
     60 H25        -4.2416   37.2369   -9.8564 H         1 F7M         0.0267
     61 H26        -5.8481   37.7482   -9.2364 H         1 F7M         0.0267
     62 H27        -5.9351   35.4068   -9.4459 H         1 F7M         0.0292
     63 H28        -4.3212   35.1955   -8.6861 H         1 F7M         0.0292
     64 H29        -6.3574   32.7710    0.6015 H         1 F7M         0.0555
     65 H30        -6.6351   31.1298    1.2768 H         1 F7M         0.0555
     66 H31        -8.0317   32.1986    0.9109 H         1 F7M         0.0555
@<TRIPOS>BOND
     1    4    1 2  
     2    1   12 1  
     3    2    4 1  
     4   15    2 1  
     5    2   16 1  
     6    4    3 1  
     7    3    5 ar 
     8    3   11 ar 
     9    5   14 ar 
    10    6    7 1  
    11    6    8 2  
    12   21    6 am 
    13    7   30 1  
    14    7   34 1  
    15    9   10 2  
    16   18    9 am 
    17    9   22 1  
    18   11   12 1  
    19   11   13 ar 
    20   12   35 1  
    21   13   17 ar 
    22   14   17 ar 
    23   14   18 1  
    24   19   15 1  
    25   16   20 1  
    26   19   21 1  
    27   20   21 1  
    28   22   23 ar 
    29   22   27 ar 
    30   23   24 ar 
    31   24   25 ar 
    32   25   26 ar 
    33   26   27 ar 
    34   26   28 1  
    35   28   29 3  
    36   30   31 1  
    37   31   32 1  
    38   32   33 1  
    39   33   34 1  
    40    1   36 1  
    41    2   37 1  
    42    5   38 1  
    43    7   39 1  
    44   13   40 1  
    45   15   41 1  
    46   15   42 1  
    47   16   43 1  
    48   16   44 1  
    49   17   45 1  
    50   18   46 1  
    51   19   47 1  
    52   19   48 1  
    53   20   49 1  
    54   20   50 1  
    55   24   51 1  
    56   25   52 1  
    57   27   53 1  
    58   30   54 1  
    59   30   55 1  
    60   31   56 1  
    61   31   57 1  
    62   32   58 1  
    63   32   59 1  
    64   33   60 1  
    65   33   61 1  
    66   34   62 1  
    67   34   63 1  
    68   35   64 1  
    69   35   65 1  
    70   35   66 1  
@<TRIPOS>SUBSTRUCTURE
     1 F7M         1

