### 
### Created by X-TOOL on Mon Sep 10 21:13:04 2018
### 

@<TRIPOS>MOLECULE
3liw_ligand
   74    78     1     0     0
SMALL
GAST_HUCK


@<TRIPOS>ATOM
      1 C1         19.2560   33.5070   16.9980 C.3       1 RUP        -0.0453
      2 C6         19.3920   33.0200   18.4990 C.3       1 RUP        -0.0174
      3 C9         20.1870   31.6440   18.5590 C.3       1 RUP         0.0480
      4 N10        20.2940   31.1750   19.9620 N.am      1 RUP        -0.2695
      5 C12        20.9350   30.0160   20.3110 C.2       1 RUP         0.2600
      6 O17        21.4820   29.3100   19.4670 O.2       1 RUP        -0.4007
      7 N13        21.0090   29.6970   21.6410 N.am      1 RUP        -0.2501
      8 C14        21.8130   28.5380   22.1240 C.3       1 RUP         0.1406
      9 C26        23.2690   28.9570   21.8030 C.2       1 RUP         0.2036
     10 O31        23.5240   30.1270   22.0760 O.2       1 RUP        -0.3944
     11 N27        24.2930   28.2380   21.2650 N.am      1 RUP        -0.2830
     12 C28        24.3760   26.8470   20.8350 C.3       1 RUP         0.0405
     13 C29        25.3870   25.9730   21.6410 C.3       1 RUP         0.0011
     14 C30        25.6450   26.4600   23.0880 C.ar      1 RUP        -0.0411
     15 C36        26.4310   27.6040   23.4430 C.ar      1 RUP        -0.0603
     16 C35        26.5920   27.9920   24.8050 C.ar      1 RUP        -0.0686
     17 C34        25.9670   27.2400   25.8360 C.ar      1 RUP        -0.0687
     18 C33        25.1850   26.1020   25.5000 C.ar      1 RUP        -0.0686
     19 C32        25.0290   25.7230   24.1380 C.ar      1 RUP        -0.0603
     20 C15        21.6790   28.3860   23.6760 C.3       1 RUP         0.0212
     21 C16        20.2770   28.0000   24.2340 C.ar      1 RUP        -0.0386
     22 C22        19.4400   26.9760   23.6740 C.ar      1 RUP        -0.0601
     23 C21        18.1650   26.6960   24.2560 C.ar      1 RUP        -0.0686
     24 C20        17.7140   27.4260   25.3950 C.ar      1 RUP        -0.0635
     25 C19        18.5420   28.4440   25.9600 C.ar      1 RUP         0.0192
     26 C23        18.1030   29.2430   27.1770 C.cat     1 RUP         0.2340
     27 N25        18.9830   30.0000   27.7820 N.pl3     1 RUP        -0.2722
     28 N24        16.8730   29.1620   27.6160 N.pl3     1 RUP        -0.2722
     29 C18        19.8080   28.7140   25.3700 C.ar      1 RUP        -0.0549
     30 C8         21.6290   31.8860   17.9070 C.3       1 RUP        -0.0174
     31 C11        22.4050   32.9790   18.7390 C.3       1 RUP        -0.0453
     32 C4         21.6040   34.3410   18.6960 C.3       1 RUP        -0.0401
     33 C5         20.1640   34.1380   19.3160 C.3       1 RUP        -0.0453
     34 C3         21.4630   34.8180   17.2010 C.3       1 RUP        -0.0473
     35 C2         20.6830   33.7260   16.3740 C.3       1 RUP        -0.0401
     36 C7         21.4850   32.3750   16.4090 C.3       1 RUP        -0.0453
     37 H1         18.6972   34.4541   16.9712 H         1 RUP         0.0271
     38 H2         18.7162   32.7461   16.4153 H         1 RUP         0.0271
     39 H3         18.3905   32.8761   18.9307 H         1 RUP         0.0323
     40 H4         19.6488   30.8840   17.9735 H         1 RUP         0.0558
     41 H5         19.8802   31.7290   20.6844 H         1 RUP         0.1848
     42 H6         20.5113   30.2554   22.3047 H         1 RUP         0.1878
     43 H7         21.5277   27.6052   21.6157 H         1 RUP         0.0820
     44 H8         25.1392   28.7567   21.1430 H         1 RUP         0.1853
     45 H9         24.6785   26.8330   19.7775 H         1 RUP         0.0542
     46 H10        23.3774   26.3970   20.9367 H         1 RUP         0.0542
     47 H11        26.3462   25.9723   21.1025 H         1 RUP         0.0446
     48 H12        24.9926   24.9473   21.6889 H         1 RUP         0.0446
     49 H13        26.9111   28.1839   22.6631 H         1 RUP         0.0557
     50 H14        27.1910   28.8604   25.0542 H         1 RUP         0.0599
     51 H15        26.0860   27.5327   26.8729 H         1 RUP         0.0559
     52 H16        24.7073   25.5227   26.2818 H         1 RUP         0.0599
     53 H17        24.4281   24.8543   23.8946 H         1 RUP         0.0557
     54 H18        21.9621   29.3478   24.1286 H         1 RUP         0.0473
     55 H19        22.3880   27.6078   23.9949 H         1 RUP         0.0473
     56 H20        19.7755   26.4151   22.8092 H         1 RUP         0.0557
     57 H21        17.5363   25.9232   23.8286 H         1 RUP         0.0599
     58 H22        16.7455   27.2091   25.8310 H         1 RUP         0.0559
     59 H23        18.7079   30.5500   28.6083 H         1 RUP         0.3181
     60 H24        19.9506   30.0457   27.4318 H         1 RUP         0.3181
     61 H25        16.1911   28.5623   27.1299 H         1 RUP         0.3181
     62 H26        16.5867   29.6980   28.4477 H         1 RUP         0.3181
     63 H27        20.4339   29.4877   25.7998 H         1 RUP         0.0556
     64 H28        22.1955   30.9433   17.9258 H         1 RUP         0.0323
     65 H29        23.4051   33.1280   18.3058 H         1 RUP         0.0271
     66 H30        22.5034   32.6443   19.7822 H         1 RUP         0.0271
     67 H31        22.1473   35.1024   19.2748 H         1 RUP         0.0301
     68 H32        20.2575   33.8261   20.3667 H         1 RUP         0.0271
     69 H33        19.6048   35.0837   19.2625 H         1 RUP         0.0271
     70 H34        22.4630   34.9627   16.7661 H         1 RUP         0.0271
     71 H35        20.9085   35.7675   17.1695 H         1 RUP         0.0271
     72 H36        20.5779   34.0625   15.3320 H         1 RUP         0.0301
     73 H37        20.9469   31.6139   15.8249 H         1 RUP         0.0271
     74 H38        22.4843   32.5305   15.9763 H         1 RUP         0.0271
@<TRIPOS>BOND
     1    1    2 1  
     2    1   35 1  
     3    2    3 1  
     4    2   33 1  
     5    3    4 1  
     6    3   30 1  
     7    4    5 am 
     8    5    6 2  
     9    5    7 am 
    10    7    8 1  
    11    8    9 1  
    12    8   20 1  
    13    9   10 2  
    14    9   11 am 
    15   11   12 1  
    16   12   13 1  
    17   13   14 1  
    18   14   15 ar 
    19   14   19 ar 
    20   15   16 ar 
    21   16   17 ar 
    22   17   18 ar 
    23   18   19 ar 
    24   20   21 1  
    25   21   22 ar 
    26   21   29 ar 
    27   22   23 ar 
    28   23   24 ar 
    29   24   25 ar 
    30   25   26 1  
    31   25   29 ar 
    32   26   27 ar 
    33   26   28 ar 
    34   30   31 1  
    35   30   36 1  
    36   31   32 1  
    37   32   33 1  
    38   32   34 1  
    39   34   35 1  
    40   35   36 1  
    41    1   37 1  
    42    1   38 1  
    43    2   39 1  
    44    3   40 1  
    45    4   41 1  
    46    7   42 1  
    47    8   43 1  
    48   11   44 1  
    49   12   45 1  
    50   12   46 1  
    51   13   47 1  
    52   13   48 1  
    53   15   49 1  
    54   16   50 1  
    55   17   51 1  
    56   18   52 1  
    57   19   53 1  
    58   20   54 1  
    59   20   55 1  
    60   22   56 1  
    61   23   57 1  
    62   24   58 1  
    63   27   59 1  
    64   27   60 1  
    65   28   61 1  
    66   28   62 1  
    67   29   63 1  
    68   30   64 1  
    69   31   65 1  
    70   31   66 1  
    71   32   67 1  
    72   33   68 1  
    73   33   69 1  
    74   34   70 1  
    75   34   71 1  
    76   35   72 1  
    77   36   73 1  
    78   36   74 1  
@<TRIPOS>SUBSTRUCTURE
     1 RUP         1

