3liw_ligand
  -I-interpret- 

 73 77  0  0  0  0  0  0  0  0999 V2000
   19.2560   33.5070   16.9980 C   0  0  0  0  0
   19.3920   33.0200   18.4990 C   0  0  0  0  0
   20.1870   31.6440   18.5590 C   0  0  0  0  0
   20.2940   31.1750   19.9620 N   0  0  0  0  0
   20.9350   30.0160   20.3110 C   0  0  0  0  0
   21.4820   29.3100   19.4670 O   0  0  0  0  0
   21.0090   29.6970   21.6410 N   0  0  0  0  0
   21.8130   28.5380   22.1240 C   0  0  0  0  0
   23.2690   28.9570   21.8030 C   0  0  0  0  0
   23.5240   30.1270   22.0760 O   0  0  0  0  0
   24.2930   28.2380   21.2650 N   0  0  0  0  0
   24.3760   26.8470   20.8350 C   0  0  0  0  0
   25.3870   25.9730   21.6410 C   0  0  0  0  0
   25.6450   26.4600   23.0880 C   0  0  0  0  0
   26.4310   27.6040   23.4430 C   0  0  0  0  0
   26.5920   27.9920   24.8050 C   0  0  0  0  0
   25.9670   27.2400   25.8360 C   0  0  0  0  0
   25.1850   26.1020   25.5000 C   0  0  0  0  0
   25.0290   25.7230   24.1380 C   0  0  0  0  0
   21.6790   28.3860   23.6760 C   0  0  0  0  0
   20.2770   28.0000   24.2340 C   0  0  0  0  0
   19.4400   26.9760   23.6740 C   0  0  0  0  0
   18.1650   26.6960   24.2560 C   0  0  0  0  0
   17.7140   27.4260   25.3950 C   0  0  0  0  0
   18.5420   28.4440   25.9600 C   0  0  0  0  0
   18.1030   29.2430   27.1770 C   0  0  0  0  0
   18.9830   30.0000   27.7820 N   0  0  0  0  0
   16.8730   29.1620   27.6160 N   0  0  0  0  0
   19.8080   28.7140   25.3700 C   0  0  0  0  0
   21.6290   31.8860   17.9070 C   0  0  0  0  0
   22.4050   32.9790   18.7390 C   0  0  0  0  0
   21.6040   34.3410   18.6960 C   0  0  0  0  0
   20.1640   34.1380   19.3160 C   0  0  0  0  0
   21.4630   34.8180   17.2010 C   0  0  0  0  0
   20.6830   33.7260   16.3740 C   0  0  0  0  0
   21.4850   32.3750   16.4090 C   0  0  0  0  0
   18.7053   34.4473   16.9739 H   0  0  0  0  0
   18.7242   32.7500   16.4215 H   0  0  0  0  0
   18.4046   32.8584   18.9315 H   0  0  0  0  0
   19.6622   30.8670   18.0031 H   0  0  0  0  0
   19.8719   31.7401   20.6989 H   0  0  0  0  0
   20.5014   30.2666   22.3179 H   0  0  0  0  0
   21.5013   27.5979   21.6688 H   0  0  0  0  0
   25.1562   28.7670   21.1406 H   0  0  0  0  0
   24.7189   26.8552   19.8004 H   0  0  0  0  0
   23.3890   26.4095   20.9853 H   0  0  0  0  0
   26.3400   26.0195   21.1140 H   0  0  0  0  0
   24.9585   24.9733   21.7124 H   0  0  0  0  0
   26.9137   28.1871   22.6588 H   0  0  0  0  0
   27.1943   28.8652   25.0556 H   0  0  0  0  0
   26.0867   27.5343   26.8787 H   0  0  0  0  0
   24.7047   25.5195   26.2862 H   0  0  0  0  0
   24.4248   24.8494   23.8933 H   0  0  0  0  0
   21.9024   29.3691   24.0904 H   0  0  0  0  0
   22.3434   27.5672   23.9520 H   0  0  0  0  0
   19.7774   26.4119   22.8045 H   0  0  0  0  0
   17.5329   25.9190   23.8262 H   0  0  0  0  0
   16.7402   27.2079   25.8334 H   0  0  0  0  0
   18.7133   30.5363   28.6067 H   0  0  0  0  0
   19.9384   30.0536   27.4288 H   0  0  0  0  0
   16.2006   28.5596   27.1412 H   0  0  0  0  0
   20.4374   29.4919   25.8022 H   0  0  0  0  0
   22.1812   30.9463   17.9203 H   0  0  0  0  0
   23.3960   33.1266   18.3097 H   0  0  0  0  0
   22.5025   32.6473   19.7727 H   0  0  0  0  0
   22.1430   35.0915   19.2742 H   0  0  0  0  0
   20.2562   33.8296   20.3574 H   0  0  0  0  0
   19.6097   35.0751   19.2638 H   0  0  0  0  0
   22.4538   34.9619   16.7700 H   0  0  0  0  0
   20.9140   35.7591   17.1696 H   0  0  0  0  0
   20.5760   34.0608   15.3422 H   0  0  0  0  0
   20.9519   31.6208   15.8302 H   0  0  0  0  0
   22.4752   32.5290   15.9802 H   0  0  0  0  0
  1  2  1  0  0  0
  1 35  1  0  0  0
  2  3  1  0  0  0
  2 33  1  0  0  0
  3  4  1  0  0  0
  3 30  1  0  0  0
  4  5  1  0  0  0
  5  6  2  0  0  0
  5  7  1  0  0  0
  7  8  1  0  0  0
  8  9  1  0  0  0
  8 20  1  0  0  0
  9 10  2  0  0  0
  9 11  1  0  0  0
 11 12  1  0  0  0
 12 13  1  0  0  0
 13 14  1  0  0  0
 14 15  4  0  0  0
 14 19  4  0  0  0
 15 16  4  0  0  0
 16 17  4  0  0  0
 17 18  4  0  0  0
 18 19  4  0  0  0
 20 21  1  0  0  0
 21 22  4  0  0  0
 21 29  4  0  0  0
 22 23  4  0  0  0
 23 24  4  0  0  0
 24 25  4  0  0  0
 25 26  1  0  0  0
 25 29  4  0  0  0
 26 27  1  0  0  0
 26 28  2  0  0  0
 30 31  1  0  0  0
 30 36  1  0  0  0
 31 32  1  0  0  0
 32 33  1  0  0  0
 32 34  1  0  0  0
 34 35  1  0  0  0
 35 36  1  0  0  0
  1 37  1  0  0  0
  1 38  1  0  0  0
  2 39  1  0  0  0
  3 40  1  0  0  0
  4 41  1  0  0  0
  7 42  1  0  0  0
  8 43  1  0  0  0
 11 44  1  0  0  0
 12 45  1  0  0  0
 12 46  1  0  0  0
 13 47  1  0  0  0
 13 48  1  0  0  0
 15 49  1  0  0  0
 16 50  1  0  0  0
 17 51  1  0  0  0
 18 52  1  0  0  0
 19 53  1  0  0  0
 20 54  1  0  0  0
 20 55  1  0  0  0
 22 56  1  0  0  0
 23 57  1  0  0  0
 24 58  1  0  0  0
 27 59  1  0  0  0
 27 60  1  0  0  0
 28 61  1  0  0  0
 29 62  1  0  0  0
 30 63  1  0  0  0
 31 64  1  0  0  0
 31 65  1  0  0  0
 32 66  1  0  0  0
 33 67  1  0  0  0
 33 68  1  0  0  0
 34 69  1  0  0  0
 34 70  1  0  0  0
 35 71  1  0  0  0
 36 72  1  0  0  0
 36 73  1  0  0  0
M  END
$$$$
