### 
### Created by X-TOOL on Mon Aug  2 16:14:52 2021
### 

@<TRIPOS>MOLECULE
6mji_ligand
  169   170     1     0     0
SMALL
GAST_HUCK


@<TRIPOS>ATOM
      1 C1         96.0930  220.0080  322.2870 C.3       1 JTD         0.1880
      2 C2         96.6720  217.4010  324.8400 C.3       1 JTD         0.0730
      3 C3         96.5670  217.9610  323.4160 C.3       1 JTD         0.1133
      4 C4         97.8470  217.7440  322.6120 C.3       1 JTD         0.1153
      5 C5         97.6970  218.4320  321.2610 C.3       1 JTD         0.1143
      6 C6         97.3340  219.8940  321.4390 C.3       1 JTD         0.1341
      7 CBT        83.9010  223.9600  310.2820 C.3       1 JTD        -0.0653
      8 CBS        84.9110  222.8080  310.2340 C.3       1 JTD        -0.0559
      9 CBR        84.2090  221.4760  310.4620 C.3       1 JTD        -0.0533
     10 CBQ        85.2130  220.3030  310.3670 C.3       1 JTD        -0.0531
     11 CBP        85.5870  219.8180  311.7670 C.3       1 JTD        -0.0531
     12 CBO        86.1740  218.3990  311.7410 C.3       1 JTD        -0.0531
     13 CBN        86.1770  217.8930  313.1930 C.3       1 JTD        -0.0531
     14 CBM        87.1360  216.7120  313.3680 C.3       1 JTD        -0.0531
     15 CBL        87.1460  216.2940  314.8490 C.3       1 JTD        -0.0531
     16 CBK        88.2350  217.0630  315.6170 C.3       1 JTD        -0.0531
     17 CBJ        88.4560  216.4030  316.9810 C.3       1 JTD        -0.0531
     18 CBI        89.6890  217.0090  317.6760 C.3       1 JTD        -0.0530
     19 CBH        89.3620  218.4010  318.2470 C.3       1 JTD        -0.0506
     20 CBG        90.3370  218.7860  319.3790 C.3       1 JTD        -0.0243
     21 CAQ        91.7910  218.7950  318.8920 C.3       1 JTD         0.0833
     22 OAR        91.8970  219.4820  317.6300 O.3       1 JTD        -0.3892
     23 CAP        92.7180  219.5050  319.8870 C.3       1 JTD         0.1059
     24 OAS        92.3020  220.8590  320.0520 O.3       1 JTD        -0.3869
     25 CAN        92.7310  218.8350  321.2620 C.3       1 JTD         0.0936
     26 CAM        93.7440  219.5470  322.1720 C.3       1 JTD         0.0762
     27 O1         95.0220  219.4110  321.5650 O.3       1 JTD        -0.3463
     28 O5         97.0790  220.4900  320.1510 O.3       1 JTD        -0.3841
     29 O3         98.9200  218.3630  320.5470 O.3       1 JTD        -0.3864
     30 O2         96.3100  219.3640  323.5540 O.3       1 JTD        -0.3405
     31 O6         96.8390  215.9870  324.7650 O.3       1 JTD        -0.3924
     32 O4         98.9740  218.3210  323.2870 O.3       1 JTD        -0.3710
     33 CAT        99.7670  217.4230  324.0610 C.3       1 JTD         0.0511
     34 CAU       101.0110  217.0150  323.2820 C.3       1 JTD        -0.0175
     35 CAV       100.9520  215.7190  322.4950 C.3       1 JTD        -0.0478
     36 CAW       101.7240  215.7630  323.7950 C.3       1 JTD        -0.0478
     37 NAO        93.1490  217.4390  321.1410 N.am      1 JTD        -0.2791
     38 CBE        92.8180  216.5650  322.0890 C.2       1 JTD         0.1764
     39 OBF        92.1560  216.8610  323.0800 O.2       1 JTD        -0.3971
     40 CBU        93.3540  215.1500  321.8790 C.3       1 JTD         0.0372
     41 CBV        92.2650  214.1130  322.1130 C.3       1 JTD        -0.0361
     42 CBW        91.2910  214.0530  320.9410 C.3       1 JTD        -0.0510
     43 CBX        90.1480  213.1470  321.3970 C.3       1 JTD        -0.0529
     44 CBY        89.1600  212.8520  320.2670 C.3       1 JTD        -0.0531
     45 CBZ        88.0110  212.0750  320.9180 C.3       1 JTD        -0.0531
     46 CCA        86.9720  211.6540  319.8910 C.3       1 JTD        -0.0531
     47 CCB        85.8430  210.8850  320.6080 C.3       1 JTD        -0.0531
     48 CCC        84.7240  211.8650  320.9810 C.3       1 JTD        -0.0531
     49 CCD        83.7000  211.2210  321.9220 C.3       1 JTD        -0.0531
     50 CCE        83.5340  212.1100  323.1560 C.3       1 JTD        -0.0531
     51 CCF        82.3340  211.6670  323.9990 C.3       1 JTD        -0.0531
     52 CCG        82.6860  210.4380  324.8340 C.3       1 JTD        -0.0531
     53 CCH        82.9620  210.8130  326.2950 C.3       1 JTD        -0.0531
     54 CCI        82.7400  209.5940  327.2030 C.3       1 JTD        -0.0531
     55 CCJ        83.7760  208.5110  326.9070 C.3       1 JTD        -0.0531
     56 CCK        83.4890  207.2550  327.7490 C.3       1 JTD        -0.0531
     57 CCL        84.7970  206.6320  328.2480 C.3       1 JTD        -0.0531
     58 CCM        85.2110  205.4170  327.4140 C.3       1 JTD        -0.0531
     59 CCN        85.8880  205.8250  326.1050 C.3       1 JTD        -0.0531
     60 CCO        87.2670  205.1580  325.9950 C.3       1 JTD        -0.0531
     61 CCP        87.5000  204.6420  324.5710 C.3       1 JTD        -0.0531
     62 CCQ        87.7970  205.7940  323.6140 C.3       1 JTD        -0.0533
     63 CCR        86.7440  205.8630  322.5200 C.3       1 JTD        -0.0559
     64 CCS        87.1080  206.9880  321.5420 C.3       1 JTD        -0.0653
     65 H1         95.8626  221.0689  322.4641 H         1 JTD         0.0937
     66 H2         95.7540  217.6360  325.3986 H         1 JTD         0.0584
     67 H3         97.5370  217.8491  325.3509 H         1 JTD         0.0584
     68 H4         95.7315  217.4752  322.8907 H         1 JTD         0.0647
     69 H5         98.0138  216.6661  322.4696 H         1 JTD         0.0649
     70 H6         96.9063  217.9270  320.6867 H         1 JTD         0.0648
     71 H7         98.1655  220.4205  321.9303 H         1 JTD         0.0671
     72 H8         84.4240  224.9133  310.1157 H         1 JTD         0.0230
     73 H9         83.4112  223.9775  311.2668 H         1 JTD         0.0230
     74 H10        83.1430  223.8160  309.4980 H         1 JTD         0.0230
     75 H11        85.6684  222.9572  311.0177 H         1 JTD         0.0263
     76 H12        85.4002  222.7958  309.2488 H         1 JTD         0.0263
     77 H13        83.4277  221.3447  309.6989 H         1 JTD         0.0265
     78 H14        83.7491  221.4770  311.4612 H         1 JTD         0.0265
     79 H15        86.1200  220.6416  309.8448 H         1 JTD         0.0265
     80 H16        84.7541  219.4757  309.8058 H         1 JTD         0.0265
     81 H17        84.6852  219.8188  312.3969 H         1 JTD         0.0265
     82 H18        86.3332  220.5042  312.1941 H         1 JTD         0.0265
     83 H19        87.2002  218.4208  311.3455 H         1 JTD         0.0265
     84 H20        85.5528  217.7436  311.1129 H         1 JTD         0.0265
     85 H21        85.1601  217.5719  313.4628 H         1 JTD         0.0265
     86 H22        86.4915  218.7115  313.8572 H         1 JTD         0.0265
     87 H23        88.1494  217.0106  313.0617 H         1 JTD         0.0265
     88 H24        86.7994  215.8678  312.7483 H         1 JTD         0.0265
     89 H25        87.3466  215.2148  314.9195 H         1 JTD         0.0265
     90 H26        86.1646  216.5144  315.2943 H         1 JTD         0.0265
     91 H27        87.9159  218.1058  315.7611 H         1 JTD         0.0265
     92 H28        89.1731  217.0426  315.0429 H         1 JTD         0.0265
     93 H29        88.6132  215.3234  316.8403 H         1 JTD         0.0265
     94 H30        87.5687  216.5654  317.6105 H         1 JTD         0.0265
     95 H31        90.5064  217.1012  316.9457 H         1 JTD         0.0265
     96 H32        90.0031  216.3469  318.4963 H         1 JTD         0.0265
     97 H33        88.3365  218.3933  318.6447 H         1 JTD         0.0266
     98 H34        89.4371  219.1456  317.4409 H         1 JTD         0.0266
     99 H35        90.2392  218.0578  320.1976 H         1 JTD         0.0291
    100 H36        90.0778  219.7894  319.7478 H         1 JTD         0.0291
    101 H37        92.1248  217.7541  318.7691 H         1 JTD         0.0620
    102 H38        91.6001  220.3785  317.7328 H         1 JTD         0.2099
    103 H39        93.7396  219.4883  319.4795 H         1 JTD         0.0643
    104 H40        92.3389  221.3048  319.2140 H         1 JTD         0.2100
    105 H41        91.7255  218.8871  321.7050 H         1 JTD         0.0605
    106 H42        93.7485  219.0808  323.1683 H         1 JTD         0.0585
    107 H43        93.4829  220.6114  322.2663 H         1 JTD         0.0585
    108 H44        96.3595  220.0348  319.7295 H         1 JTD         0.2101
    109 H45        98.8146  218.7793  319.6996 H         1 JTD         0.2100
    110 H46        96.9051  215.6301  325.6429 H         1 JTD         0.2095
    111 H47        99.1753  216.5261  324.2964 H         1 JTD         0.0563
    112 H48       100.0696  217.9183  324.9954 H         1 JTD         0.0563
    113 H49       101.5609  217.8908  322.9071 H         1 JTD         0.0323
    114 H50       101.4910  215.6325  321.5400 H         1 JTD         0.0269
    115 H51       100.0090  215.1557  322.4362 H         1 JTD         0.0269
    116 H52       101.3408  215.2353  324.6808 H         1 JTD         0.0269
    117 H53       102.8228  215.7121  323.7846 H         1 JTD         0.0269
    118 H54        93.6818  217.1418  320.3487 H         1 JTD         0.1856
    119 H55        94.1793  214.9699  322.5835 H         1 JTD         0.0502
    120 H56        93.7249  215.0554  320.8478 H         1 JTD         0.0502
    121 H57        91.7105  214.3764  323.0257 H         1 JTD         0.0290
    122 H58        92.7327  213.1256  322.2402 H         1 JTD         0.0290
    123 H59        91.7846  213.6300  320.0537 H         1 JTD         0.0267
    124 H60        90.9123  215.0585  320.7055 H         1 JTD         0.0267
    125 H61        89.6094  213.6421  322.2185 H         1 JTD         0.0265
    126 H62        90.5704  212.1967  321.7556 H         1 JTD         0.0265
    127 H63        89.6402  212.2447  319.4856 H         1 JTD         0.0265
    128 H64        88.7889  213.7892  319.8267 H         1 JTD         0.0265
    129 H65        87.5293  212.7142  321.6726 H         1 JTD         0.0265
    130 H66        88.4176  211.1761  321.4045 H         1 JTD         0.0265
    131 H67        87.4403  211.0041  319.1371 H         1 JTD         0.0265
    132 H68        86.5565  212.5459  319.3992 H         1 JTD         0.0265
    133 H69        86.2395  210.4149  321.5200 H         1 JTD         0.0265
    134 H70        85.4441  210.1084  319.9388 H         1 JTD         0.0265
    135 H71        84.2114  212.1877  320.0628 H         1 JTD         0.0265
    136 H72        85.1670  212.7393  321.4803 H         1 JTD         0.0265
    137 H73        84.0548  210.2260  322.2287 H         1 JTD         0.0265
    138 H74        82.7340  211.1226  321.4051 H         1 JTD         0.0265
    139 H75        83.3805  213.1497  322.8314 H         1 JTD         0.0265
    140 H76        84.4455  212.0479  323.7685 H         1 JTD         0.0265
    141 H77        81.4946  211.4219  323.3317 H         1 JTD         0.0265
    142 H78        82.0413  212.4879  324.6702 H         1 JTD         0.0265
    143 H79        83.5836  209.9633  324.4110 H         1 JTD         0.0265
    144 H80        81.8454  209.7293  324.7994 H         1 JTD         0.0265
    145 H81        82.2806  211.6215  326.5982 H         1 JTD         0.0265
    146 H82        84.0030  211.1548  326.3927 H         1 JTD         0.0265
    147 H83        81.7326  209.1893  327.0260 H         1 JTD         0.0265
    148 H84        82.8310  209.9043  328.2544 H         1 JTD         0.0265
    149 H85        84.7788  208.8910  327.1520 H         1 JTD         0.0265
    150 H86        83.7335  208.2499  325.8393 H         1 JTD         0.0265
    151 H87        82.9509  206.5206  327.1316 H         1 JTD         0.0265
    152 H88        82.8678  207.5329  328.6132 H         1 JTD         0.0265
    153 H89        84.6633  206.3159  329.2931 H         1 JTD         0.0265
    154 H90        85.5939  207.3883  328.1927 H         1 JTD         0.0265
    155 H91        84.3143  204.8243  327.1804 H         1 JTD         0.0265
    156 H92        85.9121  204.8055  328.0009 H         1 JTD         0.0265
    157 H93        86.0096  206.9180  326.0833 H         1 JTD         0.0265
    158 H94        85.2621  205.5088  325.2575 H         1 JTD         0.0265
    159 H95        87.3185  204.3143  326.6989 H         1 JTD         0.0265
    160 H96        88.0460  205.8930  326.2459 H         1 JTD         0.0265
    161 H97        86.5988  204.1127  324.2281 H         1 JTD         0.0265
    162 H98        88.3536  203.9483  324.5748 H         1 JTD         0.0265
    163 H99        88.7849  205.6385  323.1560 H         1 JTD         0.0265
    164 H100       87.7979  206.7399  324.1755 H         1 JTD         0.0265
    165 H101       85.7606  206.0684  322.9679 H         1 JTD         0.0263
    166 H102       86.7088  204.9043  321.9818 H         1 JTD         0.0263
    167 H103       86.3492  207.0429  320.7475 H         1 JTD         0.0230
    168 H104       88.0919  206.7817  321.0956 H         1 JTD         0.0230
    169 H105       87.1437  207.9458  322.0817 H         1 JTD         0.0230
@<TRIPOS>BOND
     1    1    6 1  
     2   27    1 1  
     3    1   30 1  
     4    3    2 1  
     5    2   31 1  
     6    3    4 1  
     7   30    3 1  
     8    5    4 1  
     9    4   32 1  
    10    6    5 1  
    11    5   29 1  
    12    6   28 1  
    13    8    7 1  
    14    9    8 1  
    15   10    9 1  
    16   11   10 1  
    17   12   11 1  
    18   13   12 1  
    19   14   13 1  
    20   15   14 1  
    21   16   15 1  
    22   17   16 1  
    23   18   17 1  
    24   19   18 1  
    25   20   19 1  
    26   21   20 1  
    27   21   22 1  
    28   23   21 1  
    29   23   24 1  
    30   25   23 1  
    31   26   25 1  
    32   25   37 1  
    33   26   27 1  
    34   32   33 1  
    35   33   34 1  
    36   34   35 1  
    37   34   36 1  
    38   35   36 1  
    39   37   38 am 
    40   38   39 2  
    41   38   40 1  
    42   40   41 1  
    43   41   42 1  
    44   42   43 1  
    45   43   44 1  
    46   44   45 1  
    47   45   46 1  
    48   46   47 1  
    49   47   48 1  
    50   48   49 1  
    51   49   50 1  
    52   50   51 1  
    53   51   52 1  
    54   52   53 1  
    55   53   54 1  
    56   54   55 1  
    57   55   56 1  
    58   56   57 1  
    59   57   58 1  
    60   58   59 1  
    61   59   60 1  
    62   60   61 1  
    63   61   62 1  
    64   62   63 1  
    65   63   64 1  
    66    1   65 1  
    67    2   66 1  
    68    2   67 1  
    69    3   68 1  
    70    4   69 1  
    71    5   70 1  
    72    6   71 1  
    73    7   72 1  
    74    7   73 1  
    75    7   74 1  
    76    8   75 1  
    77    8   76 1  
    78    9   77 1  
    79    9   78 1  
    80   10   79 1  
    81   10   80 1  
    82   11   81 1  
    83   11   82 1  
    84   12   83 1  
    85   12   84 1  
    86   13   85 1  
    87   13   86 1  
    88   14   87 1  
    89   14   88 1  
    90   15   89 1  
    91   15   90 1  
    92   16   91 1  
    93   16   92 1  
    94   17   93 1  
    95   17   94 1  
    96   18   95 1  
    97   18   96 1  
    98   19   97 1  
    99   19   98 1  
   100   20   99 1  
   101   20  100 1  
   102   21  101 1  
   103   22  102 1  
   104   23  103 1  
   105   24  104 1  
   106   25  105 1  
   107   26  106 1  
   108   26  107 1  
   109   28  108 1  
   110   29  109 1  
   111   31  110 1  
   112   33  111 1  
   113   33  112 1  
   114   34  113 1  
   115   35  114 1  
   116   35  115 1  
   117   36  116 1  
   118   36  117 1  
   119   37  118 1  
   120   40  119 1  
   121   40  120 1  
   122   41  121 1  
   123   41  122 1  
   124   42  123 1  
   125   42  124 1  
   126   43  125 1  
   127   43  126 1  
   128   44  127 1  
   129   44  128 1  
   130   45  129 1  
   131   45  130 1  
   132   46  131 1  
   133   46  132 1  
   134   47  133 1  
   135   47  134 1  
   136   48  135 1  
   137   48  136 1  
   138   49  137 1  
   139   49  138 1  
   140   50  139 1  
   141   50  140 1  
   142   51  141 1  
   143   51  142 1  
   144   52  143 1  
   145   52  144 1  
   146   53  145 1  
   147   53  146 1  
   148   54  147 1  
   149   54  148 1  
   150   55  149 1  
   151   55  150 1  
   152   56  151 1  
   153   56  152 1  
   154   57  153 1  
   155   57  154 1  
   156   58  155 1  
   157   58  156 1  
   158   59  157 1  
   159   59  158 1  
   160   60  159 1  
   161   60  160 1  
   162   61  161 1  
   163   61  162 1  
   164   62  163 1  
   165   62  164 1  
   166   63  165 1  
   167   63  166 1  
   168   64  167 1  
   169   64  168 1  
   170   64  169 1  
@<TRIPOS>SUBSTRUCTURE
     1 JTD         1

