6mji_ligand
  -I-interpret- 

169170  0  0  0  0  0  0  0  0999 V2000
   96.0930  220.0080  322.2870 C   0  0  0  0  0
   96.6720  217.4010  324.8400 C   0  0  0  0  0
   96.5670  217.9610  323.4160 C   0  0  0  0  0
   97.8470  217.7440  322.6120 C   0  0  0  0  0
   97.6970  218.4320  321.2610 C   0  0  0  0  0
   97.3340  219.8940  321.4390 C   0  0  0  0  0
   83.9010  223.9600  310.2820 C   0  0  0  0  0
   84.9110  222.8080  310.2340 C   0  0  0  0  0
   84.2090  221.4760  310.4620 C   0  0  0  0  0
   85.2130  220.3030  310.3670 C   0  0  0  0  0
   85.5870  219.8180  311.7670 C   0  0  0  0  0
   86.1740  218.3990  311.7410 C   0  0  0  0  0
   86.1770  217.8930  313.1930 C   0  0  0  0  0
   87.1360  216.7120  313.3680 C   0  0  0  0  0
   87.1460  216.2940  314.8490 C   0  0  0  0  0
   88.2350  217.0630  315.6170 C   0  0  0  0  0
   88.4560  216.4030  316.9810 C   0  0  0  0  0
   89.6890  217.0090  317.6760 C   0  0  0  0  0
   89.3620  218.4010  318.2470 C   0  0  0  0  0
   90.3370  218.7860  319.3790 C   0  0  0  0  0
   91.7910  218.7950  318.8920 C   0  0  0  0  0
   91.8970  219.4820  317.6300 O   0  0  0  0  0
   92.7180  219.5050  319.8870 C   0  0  0  0  0
   92.3020  220.8590  320.0520 O   0  0  0  0  0
   92.7310  218.8350  321.2620 C   0  0  0  0  0
   93.7440  219.5470  322.1720 C   0  0  0  0  0
   95.0220  219.4110  321.5650 O   0  0  0  0  0
   97.0790  220.4900  320.1510 O   0  0  0  0  0
   98.9200  218.3630  320.5470 O   0  0  0  0  0
   96.3100  219.3640  323.5540 O   0  0  0  0  0
   96.8390  215.9870  324.7650 O   0  0  0  0  0
   98.9740  218.3210  323.2870 O   0  0  0  0  0
   99.7670  217.4230  324.0610 C   0  0  0  0  0
  101.0110  217.0150  323.2820 C   0  0  0  0  0
  100.9520  215.7190  322.4950 C   0  0  0  0  0
  101.7240  215.7630  323.7950 C   0  0  0  0  0
   93.1490  217.4390  321.1410 N   0  0  0  0  0
   92.8180  216.5650  322.0890 C   0  0  0  0  0
   92.1560  216.8610  323.0800 O   0  0  0  0  0
   93.3540  215.1500  321.8790 C   0  0  0  0  0
   92.2650  214.1130  322.1130 C   0  0  0  0  0
   91.2910  214.0530  320.9410 C   0  0  0  0  0
   90.1480  213.1470  321.3970 C   0  0  0  0  0
   89.1600  212.8520  320.2670 C   0  0  0  0  0
   88.0110  212.0750  320.9180 C   0  0  0  0  0
   86.9720  211.6540  319.8910 C   0  0  0  0  0
   85.8430  210.8850  320.6080 C   0  0  0  0  0
   84.7240  211.8650  320.9810 C   0  0  0  0  0
   83.7000  211.2210  321.9220 C   0  0  0  0  0
   83.5340  212.1100  323.1560 C   0  0  0  0  0
   82.3340  211.6670  323.9990 C   0  0  0  0  0
   82.6860  210.4380  324.8340 C   0  0  0  0  0
   82.9620  210.8130  326.2950 C   0  0  0  0  0
   82.7400  209.5940  327.2030 C   0  0  0  0  0
   83.7760  208.5110  326.9070 C   0  0  0  0  0
   83.4890  207.2550  327.7490 C   0  0  0  0  0
   84.7970  206.6320  328.2480 C   0  0  0  0  0
   85.2110  205.4170  327.4140 C   0  0  0  0  0
   85.8880  205.8250  326.1050 C   0  0  0  0  0
   87.2670  205.1580  325.9950 C   0  0  0  0  0
   87.5000  204.6420  324.5710 C   0  0  0  0  0
   87.7970  205.7940  323.6140 C   0  0  0  0  0
   86.7440  205.8630  322.5200 C   0  0  0  0  0
   87.1080  206.9880  321.5420 C   0  0  0  0  0
   95.8483  221.0495  322.4954 H   0  0  0  0  0
   95.7661  217.6374  325.3982 H   0  0  0  0  0
   97.5249  217.8476  325.3512 H   0  0  0  0  0
   95.7742  217.4467  322.8729 H   0  0  0  0  0
   98.0097  216.6727  322.4935 H   0  0  0  0  0
   96.9049  217.9232  320.7116 H   0  0  0  0  0
   98.1612  220.4103  321.9261 H   0  0  0  0  0
   83.1505  223.8161  309.5047 H   0  0  0  0  0
   83.4164  223.9762  311.2582 H   0  0  0  0  0
   84.4204  224.9040  310.1171 H   0  0  0  0  0
   85.6550  222.9556  311.0168 H   0  0  0  0  0
   85.3877  222.7947  309.2539 H   0  0  0  0  0
   83.4436  221.3465  309.6969 H   0  0  0  0  0
   83.7645  221.4786  311.4573 H   0  0  0  0  0
   86.1126  220.6425  309.8536 H   0  0  0  0  0
   84.7541  219.4829  309.8148 H   0  0  0  0  0
   84.6841  219.8042  312.3774 H   0  0  0  0  0
   86.3401  220.4930  312.1736 H   0  0  0  0  0
   87.1837  218.4047  311.3304 H   0  0  0  0  0
   85.5788  217.7449  311.1038 H   0  0  0  0  0
   85.1698  217.5631  313.4478 H   0  0  0  0  0
   86.5037  218.7048  313.8429 H   0  0  0  0  0
   88.1402  217.0038  313.0605 H   0  0  0  0  0
   86.8073  215.8756  312.7511 H   0  0  0  0  0
   87.3529  215.2258  314.9147 H   0  0  0  0  0
   86.1747  216.5213  315.2882 H   0  0  0  0  0
   87.9197  218.0967  315.7591 H   0  0  0  0  0
   89.1645  217.0439  315.0481 H   0  0  0  0  0
   88.6186  215.3349  316.8368 H   0  0  0  0  0
   87.5778  216.5723  317.6041 H   0  0  0  0  0
   90.4924  217.1073  316.9459 H   0  0  0  0  0
   89.9900  216.3543  318.4938 H   0  0  0  0  0
   88.3504  218.3808  318.6524 H   0  0  0  0  0
   89.4533  219.1347  317.4461 H   0  0  0  0  0
   90.2456  218.0499  320.1777 H   0  0  0  0  0
   90.0837  219.7877  319.7262 H   0  0  0  0  0
   92.0929  217.7525  318.7912 H   0  0  0  0  0
   92.8124  219.4780  317.3407 H   0  0  0  0  0
   93.7244  219.4498  319.4719 H   0  0  0  0  0
   92.8853  221.2981  320.6753 H   0  0  0  0  0
   91.7259  218.8922  321.6799 H   0  0  0  0  0
   93.7429  219.1042  323.1680 H   0  0  0  0  0
   93.4836  220.5992  322.2870 H   0  0  0  0  0
   96.8497  221.4149  320.2674 H   0  0  0  0  0
   99.1663  217.4432  320.4245 H   0  0  0  0  0
   96.9058  215.6263  325.6521 H   0  0  0  0  0
   99.1799  216.5330  324.2876 H   0  0  0  0  0
  100.0700  217.9187  324.9833 H   0  0  0  0  0
  101.2949  218.0398  323.0427 H   0  0  0  0  0
  101.1066  215.3837  321.4694 H   0  0  0  0  0
  100.1987  215.0916  322.0184 H   0  0  0  0  0
  101.8077  215.1884  324.7175 H   0  0  0  0  0
  102.7048  215.4770  324.1750 H   0  0  0  0  0
   93.6925  217.1359  320.3328 H   0  0  0  0  0
   94.1625  214.9738  322.5885 H   0  0  0  0  0
   93.7079  215.0593  320.8521 H   0  0  0  0  0
   91.7105  214.3903  323.0095 H   0  0  0  0  0
   92.7357  213.1359  322.2217 H   0  0  0  0  0
   91.7727  213.6634  320.0442 H   0  0  0  0  0
   90.9285  215.0459  320.6749 H   0  0  0  0  0
   89.6085  213.6567  322.1953 H   0  0  0  0  0
   90.5762  212.2013  321.7292 H   0  0  0  0  0
   89.6280  212.2769  319.4681 H   0  0  0  0  0
   88.8053  213.7696  319.7977 H   0  0  0  0  0
   87.5293  212.7209  321.6521 H   0  0  0  0  0
   88.4202  211.1782  321.3833 H   0  0  0  0  0
   87.4347  211.0135  319.1402 H   0  0  0  0  0
   86.5620  212.5360  319.3989 H   0  0  0  0  0
   86.2352  210.4166  321.5107 H   0  0  0  0  0
   85.4485  210.1135  319.9468 H   0  0  0  0  0
   84.2108  212.1654  320.0675 H   0  0  0  0  0
   85.1701  212.7192  321.4904 H   0  0  0  0  0
   84.0470  210.2327  322.2236 H   0  0  0  0  0
   82.7430  211.1179  321.4105 H   0  0  0  0  0
   83.3687  213.1358  322.8266 H   0  0  0  0  0
   84.4349  212.0328  323.7647 H   0  0  0  0  0
   81.5086  211.4160  323.3328 H   0  0  0  0  0
   82.0543  212.4801  324.6689 H   0  0  0  0  0
   83.5851  209.9834  324.4180 H   0  0  0  0  0
   81.8420  209.7488  324.8075 H   0  0  0  0  0
   82.2824  211.6109  326.5943 H   0  0  0  0  0
   83.9953  211.1466  326.3899 H   0  0  0  0  0
   81.7440  209.1914  327.0183 H   0  0  0  0  0
   82.8392  209.9043  328.2432 H   0  0  0  0  0
   84.7676  208.8886  327.1567 H   0  0  0  0  0
   83.7269  208.2502  325.8498 H   0  0  0  0  0
   82.9636  206.5271  327.1308 H   0  0  0  0  0
   82.8807  207.5366  328.6085 H   0  0  0  0  0
   84.6464  206.3032  329.2763 H   0  0  0  0  0
   85.5832  207.3828  328.1686 H   0  0  0  0  0
   84.3134  204.8484  327.1709 H   0  0  0  0  0
   85.9208  204.8296  327.9963 H   0  0  0  0  0
   86.0116  206.9078  326.0881 H   0  0  0  0  0
   85.2682  205.5064  325.2669 H   0  0  0  0  0
   87.3109  204.3180  326.6882 H   0  0  0  0  0
   88.0361  205.8917  326.2366 H   0  0  0  0  0
   86.5994  204.1295  324.2328 H   0  0  0  0  0
   88.3543  203.9651  324.5795 H   0  0  0  0  0
   88.7728  205.6313  323.1563 H   0  0  0  0  0
   87.7884  206.7297  324.1730 H   0  0  0  0  0
   85.7684  206.0637  322.9626 H   0  0  0  0  0
   86.7060  204.9127  321.9876 H   0  0  0  0  0
   87.1431  207.9365  322.0780 H   0  0  0  0  0
   88.0831  206.7825  321.1004 H   0  0  0  0  0
   86.3554  207.0414  320.7553 H   0  0  0  0  0
  1  6  1  0  0  0
 27  1  1  0  0  0
  1 30  1  0  0  0
  3  2  1  0  0  0
  2 31  1  0  0  0
  3  4  1  0  0  0
 30  3  1  0  0  0
  5  4  1  0  0  0
  4 32  1  0  0  0
  6  5  1  0  0  0
  5 29  1  0  0  0
  6 28  1  0  0  0
  8  7  1  0  0  0
  9  8  1  0  0  0
 10  9  1  0  0  0
 11 10  1  0  0  0
 12 11  1  0  0  0
 13 12  1  0  0  0
 14 13  1  0  0  0
 15 14  1  0  0  0
 16 15  1  0  0  0
 17 16  1  0  0  0
 18 17  1  0  0  0
 19 18  1  0  0  0
 20 19  1  0  0  0
 21 20  1  0  0  0
 21 22  1  0  0  0
 23 21  1  0  0  0
 23 24  1  0  0  0
 25 23  1  0  0  0
 26 25  1  0  0  0
 25 37  1  0  0  0
 26 27  1  0  0  0
 32 33  1  0  0  0
 33 34  1  0  0  0
 34 35  1  0  0  0
 34 36  1  0  0  0
 35 36  1  0  0  0
 37 38  1  0  0  0
 38 39  2  0  0  0
 38 40  1  0  0  0
 40 41  1  0  0  0
 41 42  1  0  0  0
 42 43  1  0  0  0
 43 44  1  0  0  0
 44 45  1  0  0  0
 45 46  1  0  0  0
 46 47  1  0  0  0
 47 48  1  0  0  0
 48 49  1  0  0  0
 49 50  1  0  0  0
 50 51  1  0  0  0
 51 52  1  0  0  0
 52 53  1  0  0  0
 53 54  1  0  0  0
 54 55  1  0  0  0
 55 56  1  0  0  0
 56 57  1  0  0  0
 57 58  1  0  0  0
 58 59  1  0  0  0
 59 60  1  0  0  0
 60 61  1  0  0  0
 61 62  1  0  0  0
 62 63  1  0  0  0
 63 64  1  0  0  0
  1 65  1  0  0  0
  2 66  1  0  0  0
  2 67  1  0  0  0
  3 68  1  0  0  0
  4 69  1  0  0  0
  5 70  1  0  0  0
  6 71  1  0  0  0
  7 72  1  0  0  0
  7 73  1  0  0  0
  7 74  1  0  0  0
  8 75  1  0  0  0
  8 76  1  0  0  0
  9 77  1  0  0  0
  9 78  1  0  0  0
 10 79  1  0  0  0
 10 80  1  0  0  0
 11 81  1  0  0  0
 11 82  1  0  0  0
 12 83  1  0  0  0
 12 84  1  0  0  0
 13 85  1  0  0  0
 13 86  1  0  0  0
 14 87  1  0  0  0
 14 88  1  0  0  0
 15 89  1  0  0  0
 15 90  1  0  0  0
 16 91  1  0  0  0
 16 92  1  0  0  0
 17 93  1  0  0  0
 17 94  1  0  0  0
 18 95  1  0  0  0
 18 96  1  0  0  0
 19 97  1  0  0  0
 19 98  1  0  0  0
 20 99  1  0  0  0
 20100  1  0  0  0
 21101  1  0  0  0
 22102  1  0  0  0
 23103  1  0  0  0
 24104  1  0  0  0
 25105  1  0  0  0
 26106  1  0  0  0
 26107  1  0  0  0
 28108  1  0  0  0
 29109  1  0  0  0
 31110  1  0  0  0
 33111  1  0  0  0
 33112  1  0  0  0
 34113  1  0  0  0
 35114  1  0  0  0
 35115  1  0  0  0
 36116  1  0  0  0
 36117  1  0  0  0
 37118  1  0  0  0
 40119  1  0  0  0
 40120  1  0  0  0
 41121  1  0  0  0
 41122  1  0  0  0
 42123  1  0  0  0
 42124  1  0  0  0
 43125  1  0  0  0
 43126  1  0  0  0
 44127  1  0  0  0
 44128  1  0  0  0
 45129  1  0  0  0
 45130  1  0  0  0
 46131  1  0  0  0
 46132  1  0  0  0
 47133  1  0  0  0
 47134  1  0  0  0
 48135  1  0  0  0
 48136  1  0  0  0
 49137  1  0  0  0
 49138  1  0  0  0
 50139  1  0  0  0
 50140  1  0  0  0
 51141  1  0  0  0
 51142  1  0  0  0
 52143  1  0  0  0
 52144  1  0  0  0
 53145  1  0  0  0
 53146  1  0  0  0
 54147  1  0  0  0
 54148  1  0  0  0
 55149  1  0  0  0
 55150  1  0  0  0
 56151  1  0  0  0
 56152  1  0  0  0
 57153  1  0  0  0
 57154  1  0  0  0
 58155  1  0  0  0
 58156  1  0  0  0
 59157  1  0  0  0
 59158  1  0  0  0
 60159  1  0  0  0
 60160  1  0  0  0
 61161  1  0  0  0
 61162  1  0  0  0
 62163  1  0  0  0
 62164  1  0  0  0
 63165  1  0  0  0
 63166  1  0  0  0
 64167  1  0  0  0
 64168  1  0  0  0
 64169  1  0  0  0
M  END
$$$$
