4do5_ligand
  -I-interpret- 

 25 25  0  0  0  0  0  0  0  0999 V2000
   58.9540   -5.7030   18.9120 C   0  0  0  0  0
   58.1230   -4.9080   17.9280 C   0  0  0  0  0
   57.0000   -4.2670   18.5320 O   0  0  0  0  0
   57.6860   -5.8810   16.8310 C   0  0  0  0  0
   56.8380   -5.2140   15.9070 O   0  0  0  0  0
   58.9390   -6.3820   16.1410 C   0  0  0  0  0
   59.6100   -5.2840   15.5190 O   0  0  0  0  0
   59.8560   -7.0850   17.1320 C   0  0  0  0  0
   60.1740   -6.2690   18.3190 N   0  3  0  0  0
   61.1630   -7.4770   16.4640 C   0  0  0  0  0
   62.0460   -8.1330   17.3680 O   0  0  0  0  0
   58.3425   -6.5340   19.2636 H   0  0  0  0  0
   59.2592   -5.0248   19.7088 H   0  0  0  0  0
   58.7218   -4.0935   17.5203 H   0  0  0  0  0
   57.3055   -3.6646   19.2142 H   0  0  0  0  0
   57.1290   -6.7185   17.2512 H   0  0  0  0  0
   56.0514   -4.9046   16.3621 H   0  0  0  0  0
   58.6598   -7.1074   15.3768 H   0  0  0  0  0
   59.0146   -4.8561   14.8994 H   0  0  0  0  0
   59.3056   -7.9651   17.4645 H   0  0  0  0  0
   60.6292   -6.8632   19.0119 H   0  0  0  0  0
   60.7853   -5.5034   18.0353 H   0  0  0  0  0
   61.6506   -6.5693   16.1084 H   0  0  0  0  0
   60.9372   -8.1638   15.6482 H   0  0  0  0  0
   62.8575   -8.3639   16.9100 H   0  0  0  0  0
  1  2  1  0  0  0
  1  9  1  0  0  0
  2  3  1  0  0  0
  2  4  1  0  0  0
  4  5  1  0  0  0
  4  6  1  0  0  0
  6  7  1  0  0  0
  6  8  1  0  0  0
  8  9  1  0  0  0
  8 10  1  0  0  0
 10 11  1  0  0  0
  1 12  1  0  0  0
  1 13  1  0  0  0
  2 14  1  0  0  0
  3 15  1  0  0  0
  4 16  1  0  0  0
  5 17  1  0  0  0
  6 18  1  0  0  0
  7 19  1  0  0  0
  8 20  1  0  0  0
  9 21  1  0  0  0
  9 22  1  0  0  0
 10 23  1  0  0  0
 10 24  1  0  0  0
 11 25  1  0  0  0
M  END
$$$$
