### 
### Created by X-TOOL on Mon Sep 10 21:13:08 2018
### 

@<TRIPOS>MOLECULE
4do5_ligand
   25    25     1     0     0
SMALL
GAST_HUCK


@<TRIPOS>ATOM
      1 C1         58.9540   -5.7030   18.9120 C.3       1 DGJ        -0.0040
      2 C2         58.1230   -4.9080   17.9280 C.3       1 DGJ         0.1231
      3 O2         57.0000   -4.2670   18.5320 O.3       1 DGJ        -0.3838
      4 C3         57.6860   -5.8810   16.8310 C.3       1 DGJ         0.1171
      5 O3         56.8380   -5.2140   15.9070 O.3       1 DGJ        -0.3862
      6 C4         58.9390   -6.3820   16.1410 C.3       1 DGJ         0.1280
      7 O4         59.6100   -5.2840   15.5190 O.3       1 DGJ        -0.3835
      8 C5         59.8560   -7.0850   17.1320 C.3       1 DGJ         0.0301
      9 N5         60.1740   -6.2690   18.3190 N.4       1 DGJ         0.2346
     10 C6         61.1630   -7.4770   16.4640 C.3       1 DGJ         0.0893
     11 O6         62.0460   -8.1330   17.3680 O.3       1 DGJ        -0.3894
     12 H1         58.3396   -6.5284   19.3010 H         1 DGJ         0.0840
     13 H2         59.2438   -5.0396   19.7402 H         1 DGJ         0.0840
     14 H3         58.7564   -4.1266   17.4828 H         1 DGJ         0.0674
     15 H4         56.4346   -4.9230   18.9226 H         1 DGJ         0.2101
     16 H5         57.1433   -6.7280   17.2760 H         1 DGJ         0.0649
     17 H6         56.0707   -4.8872   16.3620 H         1 DGJ         0.2100
     18 H7         58.6488   -7.1040   15.3635 H         1 DGJ         0.0678
     19 H8         60.3954   -5.5982   15.0865 H         1 DGJ         0.2102
     20 H9         59.3446   -7.9980   17.4708 H         1 DGJ         0.0900
     21 H10        60.6349   -6.8482   19.0032 H         1 DGJ         0.2019
     22 H11        60.7877   -5.5170   18.0471 H         1 DGJ         0.2019
     23 H12        61.6540   -6.5693   16.0833 H         1 DGJ         0.0614
     24 H13        60.9445   -8.1548   15.6257 H         1 DGJ         0.0614
     25 H14        62.8491   -8.3615   16.9148 H         1 DGJ         0.2097
@<TRIPOS>BOND
     1    1    2 1  
     2    1    9 1  
     3    2    3 1  
     4    2    4 1  
     5    4    5 1  
     6    4    6 1  
     7    6    7 1  
     8    6    8 1  
     9    8    9 1  
    10    8   10 1  
    11   10   11 1  
    12    1   12 1  
    13    1   13 1  
    14    2   14 1  
    15    3   15 1  
    16    4   16 1  
    17    5   17 1  
    18    6   18 1  
    19    7   19 1  
    20    8   20 1  
    21    9   21 1  
    22    9   22 1  
    23   10   23 1  
    24   10   24 1  
    25   11   25 1  
@<TRIPOS>SUBSTRUCTURE
     1 DGJ         1

