### 
### Created by X-TOOL on Mon Sep 10 21:13:27 2018
### 

@<TRIPOS>MOLECULE
5etb_ligand
   24    25     1     0     0
SMALL
GAST_HUCK


@<TRIPOS>ATOM
      1 CAB         6.6570   -9.5780    7.1730 C.3       1 5RO        -0.0332
      2 CAJ         6.3530  -10.0210    5.8860 C.ar      1 5RO        -0.0246
      3 CAE         5.2540   -9.4950    5.2210 C.ar      1 5RO        -0.0748
      4 CAD         4.9730   -9.9550    3.9420 C.ar      1 5RO        -0.0862
      5 CAF         5.8040  -10.9150    3.3760 C.ar      1 5RO        -0.0808
      6 CAL         6.8500  -11.3900    4.0580 C.ar      1 5RO        -0.0158
      7 CAM         7.1170  -10.9420    5.2970 C.ar      1 5RO         0.0726
      8 NAH         8.2060  -11.5700    5.7380 N.pl3     1 5RO        -0.2717
      9 CAG         8.6270  -12.4050    4.7940 C.2       1 5RO         0.0476
     10 CAK         7.7910  -12.2920    3.7610 C.2       1 5RO         0.0311
     11 CAI         7.9250  -13.0040    2.6280 C.2       1 5RO         0.1033
     12 OAC         7.0910  -13.0110    1.7150 O.2       1 5RO        -0.3983
     13 CAA         9.2040  -13.8410    2.5380 C.3       1 5RO         0.0044
     14 H1          5.9188   -8.8247    7.4854 H         1 5RO         0.0376
     15 H2          7.6620   -9.1310    7.1791 H         1 5RO         0.0376
     16 H3          6.6299  -10.4288    7.8696 H         1 5RO         0.0376
     17 H4          4.6299   -8.7427    5.6896 H         1 5RO         0.0461
     18 H5          4.1199   -9.5721    3.3937 H         1 5RO         0.0500
     19 H6          5.6021  -11.2803    2.3756 H         1 5RO         0.0471
     20 H7          8.6482  -11.4313    6.6579 H         1 5RO         0.2312
     21 H8          9.4945  -13.0606    4.8529 H         1 5RO         0.1067
     22 H9          9.2208  -14.3831    1.5810 H         1 5RO         0.0442
     23 H10         9.2296  -14.5621    3.3683 H         1 5RO         0.0442
     24 H11        10.0804  -13.1792    2.5999 H         1 5RO         0.0442
@<TRIPOS>BOND
     1    1    2 1  
     2    2    3 ar 
     3    2    7 ar 
     4    3    4 ar 
     5    4    5 ar 
     6    5    6 ar 
     7    6    7 ar 
     8    6   10 1  
     9    7    8 1  
    10    8    9 1  
    11    9   10 2  
    12   10   11 1  
    13   11   12 2  
    14   11   13 1  
    15    1   14 1  
    16    1   15 1  
    17    1   16 1  
    18    3   17 1  
    19    4   18 1  
    20    5   19 1  
    21    8   20 1  
    22    9   21 1  
    23   13   22 1  
    24   13   23 1  
    25   13   24 1  
@<TRIPOS>SUBSTRUCTURE
     1 5RO         1

