5etb_ligand
  -I-interpret- 

 23 24  0  0  0  0  0  0  0  0999 V2000
    6.6570   -9.5780    7.1730 C   0  0  0  0  0
    6.3530  -10.0210    5.8860 C   0  0  0  0  0
    5.2540   -9.4950    5.2210 C   0  0  0  0  0
    4.9730   -9.9550    3.9420 C   0  0  0  0  0
    5.8040  -10.9150    3.3760 C   0  0  0  0  0
    6.8500  -11.3900    4.0580 C   0  0  0  0  0
    7.1170  -10.9420    5.2970 C   0  0  0  0  0
    8.2060  -11.5700    5.7380 N   0  0  0  0  0
    8.6270  -12.4050    4.7940 C   0  0  0  0  0
    7.7910  -12.2920    3.7610 C   0  0  0  0  0
    7.9250  -13.0040    2.6280 C   0  0  0  0  0
    7.0910  -13.0110    1.7150 O   0  0  0  0  0
    9.2040  -13.8410    2.5380 C   0  0  0  0  0
    6.8455   -8.5046    7.1514 H   0  0  0  0  0
    5.8174   -9.7875    7.8358 H   0  0  0  0  0
    7.5449  -10.0969    7.5342 H   0  0  0  0  0
    4.6264   -8.7385    5.6921 H   0  0  0  0  0
    4.1152   -9.5700    3.3906 H   0  0  0  0  0
    5.6010  -11.2823    2.3700 H   0  0  0  0  0
    9.4953  -13.0612    4.8530 H   0  0  0  0  0
    8.9413  -14.8946    2.4435 H   0  0  0  0  0
    9.7801  -13.5293    1.6668 H   0  0  0  0  0
    9.7979  -13.6928    3.4399 H   0  0  0  0  0
  1  2  1  0  0  0
  2  3  4  0  0  0
  2  7  4  0  0  0
  3  4  4  0  0  0
  4  5  4  0  0  0
  5  6  4  0  0  0
  6  7  4  0  0  0
  6 10  4  0  0  0
  7  8  4  0  0  0
  8  9  4  0  0  0
  9 10  4  0  0  0
 10 11  1  0  0  0
 11 12  2  0  0  0
 11 13  1  0  0  0
  1 14  1  0  0  0
  1 15  1  0  0  0
  1 16  1  0  0  0
  3 17  1  0  0  0
  4 18  1  0  0  0
  5 19  1  0  0  0
  9 20  1  0  0  0
 13 21  1  0  0  0
 13 22  1  0  0  0
 13 23  1  0  0  0
M  END
$$$$
