### 
### Created by X-TOOL on Mon Sep 10 21:13:09 2018
### 

@<TRIPOS>MOLECULE
3uxd_ligand
   14    15     1     0     0
SMALL
GAST_HUCK


@<TRIPOS>ATOM
      1 CAK         8.5550   -0.9930    9.0210 C.ar      1 0CU         0.0898
      2 NAG         9.5340   -1.4190    8.2540 N.2       1 0CU        -0.1992
      3 NAE        10.6120   -1.0900    8.7570 N.2       1 0CU        -0.0775
      4 NAF        10.4700   -0.4670    9.8150 N.pl3     1 0CU        -0.1746
      5 CAJ         9.1830   -0.3480   10.0640 C.ar      1 0CU         0.1121
      6 CAD         8.4560    0.2500   11.0660 C.ar      1 0CU        -0.0177
      7 CAH         7.0940    0.1330   10.9720 C.ar      1 0CU         0.0333
      8 CLA         6.1480    0.8410   12.1700 Cl        1 0CU        -0.0744
      9 CAC         6.4240   -0.4970    9.9360 C.ar      1 0CU        -0.0429
     10 CAI         7.1750   -1.0790    8.9420 C.ar      1 0CU         0.0522
     11 CLB         6.3910   -1.8970    7.6300 Cl        1 0CU        -0.0722
     12 H1         11.2320   -0.1017   10.4039 H         1 0CU         0.2583
     13 H2          8.9318    0.7823   11.8817 H         1 0CU         0.0574
     14 H3          5.3408   -0.5301    9.9097 H         1 0CU         0.0553
@<TRIPOS>BOND
     1    1    2 1  
     2    1    5 ar 
     3    1   10 ar 
     4    2    3 2  
     5    3    4 1  
     6    4    5 1  
     7    5    6 ar 
     8    6    7 ar 
     9    7    8 1  
    10    7    9 ar 
    11    9   10 ar 
    12   10   11 1  
    13    4   12 1  
    14    6   13 1  
    15    9   14 1  
@<TRIPOS>SUBSTRUCTURE
     1 0CU         1

