3uxd_ligand
  -I-interpret- 

 13 14  0  0  0  0  0  0  0  0999 V2000
    8.5550   -0.9930    9.0210 C   0  0  0  0  0
    9.5340   -1.4190    8.2540 N   0  0  0  0  0
   10.6120   -1.0900    8.7570 N   0  0  0  0  0
   10.4700   -0.4670    9.8150 N   0  0  0  0  0
    9.1830   -0.3480   10.0640 C   0  0  0  0  0
    8.4560    0.2500   11.0660 C   0  0  0  0  0
    7.0940    0.1330   10.9720 C   0  0  0  0  0
    6.1480    0.8410   12.1700 Cl  0  0  0  0  0
    6.4240   -0.4970    9.9360 C   0  0  0  0  0
    7.1750   -1.0790    8.9420 C   0  0  0  0  0
    6.3910   -1.8970    7.6300 Cl  0  0  0  0  0
    8.9345    0.7852   11.8862 H   0  0  0  0  0
    5.3348   -0.5303    9.9096 H   0  0  0  0  0
  1  2  4  0  0  0
  1  5  4  0  0  0
  1 10  4  0  0  0
  2  3  4  0  0  0
  3  4  4  0  0  0
  4  5  4  0  0  0
  5  6  4  0  0  0
  6  7  4  0  0  0
  7  8  1  0  0  0
  7  9  4  0  0  0
  9 10  4  0  0  0
 10 11  1  0  0  0
  6 12  1  0  0  0
  9 13  1  0  0  0
M  END
$$$$
