4kp5_ligand
  -I-interpret- 

 31 32  0  0  0  0  0  0  0  0999 V2000
   22.9710    2.5690    8.5320 O   0  0  0  0  0
   28.3700   12.2560    9.7690 C   0  0  0  0  0
   26.6540    5.8560   10.5470 C   0  0  0  0  0
   25.8200    4.1040    9.0430 C   0  0  0  0  0
   25.9860    3.2770    7.6250 Cl  0  0  0  0  0
   26.7170    5.1920    9.3440 C   0  0  0  0  0
   25.6230    5.5820   11.4460 C   0  0  0  0  0
   24.7210    4.4690   11.2300 C   0  0  0  0  0
   24.8170    3.8300    9.9860 C   0  0  0  0  0
   23.7370    2.3760    9.8330 S   0  0  0  0  0
   22.7700    2.3350   11.0670 N   0  0  0  0  0
   24.6950    1.1760    9.8600 O   0  0  0  0  0
   27.6660    6.9460   10.7130 C   0  0  0  0  0
   27.5500    7.5510   11.7800 O   0  0  0  0  0
   28.6650    7.2000    9.5850 C   0  0  0  0  0
   29.8370    8.5850   10.0550 S   0  0  0  0  0
   28.7270    9.9320    9.7700 C   0  0  0  0  0
   27.4710    9.7500    9.2450 N   0  0  0  0  0
   26.6760   10.8090    8.9580 C   0  0  0  0  0
   27.0970   12.0920    9.2180 C   0  0  0  0  0
   29.1720   11.1950   10.0630 N   0  0  0  0  0
   28.7328   13.2640    9.9699 H   0  0  0  0  0
   27.4588    5.4939    8.6046 H   0  0  0  0  0
   25.4941    6.2148   12.3241 H   0  0  0  0  0
   24.0093    4.1473   11.9904 H   0  0  0  0  0
   21.7640    2.4329   10.9301 H   0  0  0  0  0
   23.1471    2.2104   12.0065 H   0  0  0  0  0
   28.1206    7.4843    8.6845 H   0  0  0  0  0
   29.2404    6.2914    9.4075 H   0  0  0  0  0
   25.6933   10.6423    8.5168 H   0  0  0  0  0
   26.4604   12.9500    9.0019 H   0  0  0  0  0
 10  1  2  0  0  0
  2 20  4  0  0  0
 21  2  4  0  0  0
  3  6  4  0  0  0
  3  7  4  0  0  0
 13  3  1  0  0  0
  4  5  1  0  0  0
  6  4  4  0  0  0
  4  9  4  0  0  0
  7  8  4  0  0  0
  8  9  4  0  0  0
  9 10  1  0  0  0
 10 11  1  0  0  0
 10 12  2  0  0  0
 13 14  2  0  0  0
 15 13  1  0  0  0
 16 15  1  0  0  0
 17 16  1  0  0  0
 17 18  4  0  0  0
 17 21  4  0  0  0
 18 19  4  0  0  0
 19 20  4  0  0  0
  2 22  1  0  0  0
  6 23  1  0  0  0
  7 24  1  0  0  0
  8 25  1  0  0  0
 11 26  1  0  0  0
 11 27  1  0  0  0
 15 28  1  0  0  0
 15 29  1  0  0  0
 19 30  1  0  0  0
 20 31  1  0  0  0
M  END
$$$$
