### 
### Created by X-TOOL on Mon Sep 10 21:13:13 2018
### 

@<TRIPOS>MOLECULE
4kp5_ligand
   31    32     1     0     0
SMALL
GAST_HUCK


@<TRIPOS>ATOM
      1 O18        22.9710    2.5690    8.5320 O.2       1 E1F        -0.1499
      2 C13        28.3700   12.2560    9.7690 C.ar      1 E1F         0.0222
      3 C1         26.6540    5.8560   10.5470 C.ar      1 E1F         0.0343
      4 C2         25.8200    4.1040    9.0430 C.ar      1 E1F         0.0727
      5 CL1        25.9860    3.2770    7.6250 Cl        1 E1F        -0.0674
      6 C21        26.7170    5.1920    9.3440 C.ar      1 E1F        -0.0271
      7 C5         25.6230    5.5820   11.4460 C.ar      1 E1F        -0.0410
      8 C4         24.7210    4.4690   11.2300 C.ar      1 E1F        -0.0287
      9 C3         24.8170    3.8300    9.9860 C.ar      1 E1F         0.1264
     10 S16        23.7370    2.3760    9.8330 S.o2      1 E1F         0.0683
     11 N19        22.7700    2.3350   11.0670 N.am      1 E1F        -0.2605
     12 O17        24.6950    1.1760    9.8600 O.2       1 E1F        -0.1499
     13 C6         27.6660    6.9460   10.7130 C.2       1 E1F         0.1457
     14 O12        27.5500    7.5510   11.7800 O.2       1 E1F        -0.3773
     15 C7         28.6650    7.2000    9.5850 C.3       1 E1F         0.0883
     16 S8         29.8370    8.5850   10.0550 S.3       1 E1F        -0.0349
     17 C9         28.7270    9.9320    9.7700 C.ar      1 E1F         0.1694
     18 N11        27.4710    9.7500    9.2450 N.ar      1 E1F        -0.2535
     19 C14        26.6760   10.8090    8.9580 C.ar      1 E1F         0.0222
     20 C15        27.0970   12.0920    9.2180 C.ar      1 E1F        -0.0157
     21 N10        29.1720   11.1950   10.0630 N.ar      1 E1F        -0.2535
     22 H1         28.7308   13.2585    9.9688 H         1 E1F         0.0921
     23 H2         27.4547    5.4923    8.6086 H         1 E1F         0.0679
     24 H3         25.4948    6.2113   12.3193 H         1 E1F         0.0673
     25 H4         24.0132    4.1491   11.9862 H         1 E1F         0.0649
     26 H5         23.1397    2.2128   11.9881 H         1 E1F         0.1635
     27 H6         21.7837    2.4310   10.9328 H         1 E1F         0.1635
     28 H7         28.1186    7.4808    8.6725 H         1 E1F         0.0632
     29 H8         29.2431    6.2829    9.3987 H         1 E1F         0.0632
     30 H9         25.6987   10.6433    8.5192 H         1 E1F         0.0921
     31 H10        26.4639   12.9452    9.0031 H         1 E1F         0.0720
@<TRIPOS>BOND
     1   10    1 2  
     2    2   20 ar 
     3   21    2 ar 
     4    3    6 ar 
     5    3    7 ar 
     6   13    3 1  
     7    4    5 1  
     8    6    4 ar 
     9    4    9 ar 
    10    7    8 ar 
    11    8    9 ar 
    12    9   10 1  
    13   10   11 am 
    14   10   12 2  
    15   13   14 2  
    16   15   13 1  
    17   16   15 1  
    18   17   16 1  
    19   17   18 ar 
    20   17   21 ar 
    21   18   19 ar 
    22   19   20 ar 
    23    2   22 1  
    24    6   23 1  
    25    7   24 1  
    26    8   25 1  
    27   11   26 1  
    28   11   27 1  
    29   15   28 1  
    30   15   29 1  
    31   19   30 1  
    32   20   31 1  
@<TRIPOS>SUBSTRUCTURE
     1 E1F         1

