2nsj_ligand
  -I-interpret- 

 36 37  0  0  0  0  0  0  0  0999 V2000
   15.5640  -11.8810   -9.3190 P   0  0  0  0  0
   14.3970  -11.6720   -8.2320 O   0  0  0  0  0
   16.5400  -12.9080   -8.8910 O   0  0  0  0  0
   16.2460  -10.4420   -9.5460 O   0  0  0  0  0
   14.6400  -14.3110  -15.0520 N   0  0  0  0  0
   14.5680  -14.5100  -16.3640 C   0  0  0  0  0
   15.4910  -15.4970  -16.6800 C   0  0  0  0  0
   16.1150  -15.8450  -15.5590 N   0  0  0  0  0
   15.5900  -15.1150  -14.5760 C   0  0  0  0  0
   13.8350  -13.8080  -17.2220 N   0  0  0  0  0
   15.6850  -16.1390  -18.0540 C   0  0  0  0  0
   14.9580  -15.7400  -18.9890 O   0  0  0  0  0
   16.5450  -17.0400  -18.1630 O   0  0  0  0  0
   14.8440  -12.2660  -10.7060 O   0  0  0  0  0
   13.1750  -14.2940  -13.1020 C   0  0  0  0  0
   12.1660  -15.1680  -13.6140 O   0  0  0  0  0
   12.5560  -13.1890  -12.2440 C   0  0  0  0  0
   11.1950  -12.9750  -12.6260 O   0  0  0  0  0
   14.0040  -11.3230  -11.3740 C   0  0  0  0  0
   13.3950  -11.9630  -12.6220 C   0  0  0  0  0
   14.4280  -12.4540  -13.4930 O   0  0  0  0  0
   13.7390  -13.4570  -14.2480 C   0  0  0  0  0
   13.7863  -11.0006   -8.5449 H   0  0  0  0  0
   15.5764   -9.8117   -9.8215 H   0  0  0  0  0
   15.8944  -15.1679  -13.5307 H   0  0  0  0  0
   13.2586  -13.0357  -16.8877 H   0  0  0  0  0
   13.8488  -14.0415  -18.2148 H   0  0  0  0  0
   16.9763  -17.1734  -17.3157 H   0  0  0  0  0
   13.8879  -14.9281  -12.5750 H   0  0  0  0  0
   12.5773  -15.8516  -14.1480 H   0  0  0  0  0
   12.5560  -13.4144  -11.1776 H   0  0  0  0  0
   10.8166  -12.2804  -12.0820 H   0  0  0  0  0
   14.5972  -10.4566  -11.6667 H   0  0  0  0  0
   13.2041  -11.0137  -10.7013 H   0  0  0  0  0
   12.7908  -11.1962  -13.1068 H   0  0  0  0  0
   13.0331  -13.0408  -14.9667 H   0  0  0  0  0
  1  2  1  0  0  0
  1  3  2  0  0  0
  1  4  1  0  0  0
 14  1  1  0  0  0
  5  6  4  0  0  0
  5  9  4  0  0  0
 22  5  1  0  0  0
  6  7  4  0  0  0
  6 10  1  0  0  0
  8  7  4  0  0  0
  7 11  1  0  0  0
  9  8  4  0  0  0
 11 12  2  0  0  0
 11 13  1  0  0  0
 19 14  1  0  0  0
 15 16  1  0  0  0
 17 15  1  0  0  0
 15 22  1  0  0  0
 17 18  1  0  0  0
 20 17  1  0  0  0
 19 20  1  0  0  0
 20 21  1  0  0  0
 21 22  1  0  0  0
  2 23  1  0  0  0
  4 24  1  0  0  0
  9 25  1  0  0  0
 10 26  1  0  0  0
 10 27  1  0  0  0
 13 28  1  0  0  0
 15 29  1  0  0  0
 16 30  1  0  0  0
 17 31  1  0  0  0
 18 32  1  0  0  0
 19 33  1  0  0  0
 19 34  1  0  0  0
 20 35  1  0  0  0
 22 36  1  0  0  0
M  END
$$$$
