### 
### Created by X-TOOL on Mon Sep 10 21:12:55 2018
### 

@<TRIPOS>MOLECULE
2nsj_ligand
   33    34     1     0     0
SMALL
GAST_HUCK


@<TRIPOS>ATOM
      1 PA         15.5640  -11.8810   -9.3190 P.3       1 C2R         0.2008
      2 O1A        14.3970  -11.6720   -8.2320 O.co2     1 C2R        -0.5537
      3 O2A        16.5400  -12.9080   -8.8910 O.co2     1 C2R        -0.5537
      4 O3A        16.2460  -10.4420   -9.5460 O.co2     1 C2R        -0.5537
      5 N1         14.6400  -14.3110  -15.0520 N.pl3     1 C2R        -0.1968
      6 C5         14.5680  -14.5100  -16.3640 C.2       1 C2R         0.1617
      7 C4         15.4910  -15.4970  -16.6800 C.2       1 C2R         0.0587
      8 N3         16.1150  -15.8450  -15.5590 N.2       1 C2R        -0.3378
      9 C2         15.5900  -15.1150  -14.5760 C.2       1 C2R         0.0912
     10 N5         13.8350  -13.8080  -17.2220 N.pl3     1 C2R        -0.3116
     11 C6         15.6850  -16.1390  -18.0540 C.2       1 C2R         0.0363
     12 O7         14.9580  -15.7400  -18.9890 O.co2     1 C2R        -0.5763
     13 O8         16.5450  -17.0400  -18.1630 O.co2     1 C2R        -0.5763
     14 O5'        14.8440  -12.2660  -10.7060 O.3       1 C2R        -0.2734
     15 C2'        13.1750  -14.2940  -13.1020 C.3       1 C2R         0.1388
     16 O2'        12.1660  -15.1680  -13.6140 O.3       1 C2R        -0.3836
     17 C3'        12.5560  -13.1890  -12.2440 C.3       1 C2R         0.1149
     18 O3'        11.1950  -12.9750  -12.6260 O.3       1 C2R        -0.3864
     19 C5'        14.0040  -11.3230  -11.3740 C.3       1 C2R         0.1072
     20 C4'        13.3950  -11.9630  -12.6220 C.3       1 C2R         0.1182
     21 O4'        14.4280  -12.4540  -13.4930 O.3       1 C2R        -0.3362
     22 C1'        13.7390  -13.4570  -14.2480 C.3       1 C2R         0.2007
     23 H1         15.8941  -15.1679  -13.5317 H         1 C2R         0.1117
     24 H2         13.8490  -14.0438  -18.2246 H         1 C2R         0.1769
     25 H3         13.2529  -13.0282  -16.8844 H         1 C2R         0.1769
     26 H4         13.9483  -14.8626  -12.5648 H         1 C2R         0.0677
     27 H5         11.6984  -15.5683  -12.8904 H         1 C2R         0.2101
     28 H6         12.6228  -13.4181  -11.1702 H         1 C2R         0.0648
     29 H7         10.7028  -13.7783  -12.5035 H         1 C2R         0.2100
     30 H8         14.6005  -10.4466  -11.6674 H         1 C2R         0.0639
     31 H9         13.1979  -11.0074  -10.6954 H         1 C2R         0.0639
     32 H10        12.7739  -11.2215  -13.1458 H         1 C2R         0.0650
     33 H11        12.9567  -13.0231  -14.8880 H         1 C2R         0.1000
@<TRIPOS>BOND
     1    1    2 ar 
     2    1    3 ar 
     3    1    4 ar 
     4   14    1 1  
     5    5    6 1  
     6    5    9 1  
     7   22    5 1  
     8    6    7 2  
     9    6   10 1  
    10    8    7 1  
    11    7   11 1  
    12    9    8 2  
    13   11   12 ar 
    14   11   13 ar 
    15   19   14 1  
    16   15   16 1  
    17   17   15 1  
    18   15   22 1  
    19   17   18 1  
    20   20   17 1  
    21   19   20 1  
    22   20   21 1  
    23   21   22 1  
    24    9   23 1  
    25   10   24 1  
    26   10   25 1  
    27   15   26 1  
    28   16   27 1  
    29   17   28 1  
    30   18   29 1  
    31   19   30 1  
    32   19   31 1  
    33   20   32 1  
    34   22   33 1  
@<TRIPOS>SUBSTRUCTURE
     1 C2R         1

