4e5w_ligand
  -I-interpret- 

 56 60  0  0  0  0  0  0  0  0999 V2000
    8.8750   51.6780    1.4840 C   0  0  0  0  0
    6.8010   49.4460    3.6560 C   0  0  0  0  0
    6.4350   52.2170    1.7150 C   0  0  0  0  0
    9.1870   50.2940    0.8880 C   0  0  0  0  0
    6.6220   47.9190    3.6350 C   0  0  0  0  0
    5.4180   50.0150    4.0070 C   0  0  0  0  0
    7.3280   49.9660    2.3570 N   0  3  0  0  0
    8.6590   49.3740    2.0010 C   0  0  0  0  0
    7.5890   51.4510    2.3400 C   0  0  0  0  0
    5.6610   51.5810    1.0000 O   0  0  0  0  0
    6.2610   53.5640    1.9000 N   0  0  0  0  0
    5.1470   54.2840    1.2400 C   0  0  0  0  0
    5.6980   55.4540    0.3810 C   0  0  0  0  0
    6.6340   56.3360    1.2300 C   0  0  0  0  0
    7.7670   55.5350    1.9210 C   0  0  0  0  0
    7.1400   54.4030    2.7640 C   0  0  0  0  0
    7.1430   57.5410    0.5520 N   0  0  0  0  0
    8.4000   57.7170    0.0150 C   0  0  0  0  0
    8.5430   58.9400   -0.4080 N   0  0  0  0  0
    7.4090   59.6440   -0.1600 C   0  0  0  0  0
    6.4980   58.7550    0.4600 C   0  0  0  0  0
    5.2420   59.2500    0.8600 C   0  0  0  0  0
    4.0660   58.6630    1.5160 C   0  0  0  0  0
    3.1680   59.6560    1.6340 C   0  0  0  0  0
    3.6770   60.8180    1.1160 N   0  0  0  0  0
    4.9400   60.6110    0.6160 C   0  0  0  0  0
    5.8390   61.4150    0.0190 N   0  0  0  0  0
    7.0310   60.9830   -0.3670 C   0  0  0  0  0
    8.7249   52.4322    0.7115 H   0  0  0  0  0
    9.7018   52.0626    2.0811 H   0  0  0  0  0
    7.5460   49.7543    4.3895 H   0  0  0  0  0
   10.2398   50.1417    0.6504 H   0  0  0  0  0
    8.7295   50.1182   -0.0856 H   0  0  0  0  0
    5.9180   47.6478    2.8483 H   0  0  0  0  0
    7.5842   47.4443    3.4428 H   0  0  0  0  0
    6.2374   47.5863    4.5991 H   0  0  0  0  0
    5.4818   51.1005    4.0831 H   0  0  0  0  0
    4.7068   49.7454    3.2262 H   0  0  0  0  0
    5.0876   49.6015    4.9598 H   0  0  0  0  0
    6.5848   49.7118    1.7063 H   0  0  0  0  0
    9.3339   49.3289    2.8557 H   0  0  0  0  0
    8.5772   48.3366    1.6766 H   0  0  0  0  0
    7.7063   51.8123    3.3616 H   0  0  0  0  0
    4.4801   54.6853    2.0031 H   0  0  0  0  0
    4.6075   53.5910    0.5944 H   0  0  0  0  0
    4.8650   56.0579    0.0211 H   0  0  0  0  0
    6.2558   55.0477   -0.4627 H   0  0  0  0  0
    5.9811   56.7136    2.0169 H   0  0  0  0  0
    8.3447   56.1970    2.5660 H   0  0  0  0  0
    8.4285   55.1086    1.1669 H   0  0  0  0  0
    7.9320   53.7835    3.1847 H   0  0  0  0  0
    6.5480   54.8369    3.5699 H   0  0  0  0  0
    9.1650   56.9430   -0.0467 H   0  0  0  0  0
    3.9458   57.6297    1.8416 H   0  0  0  0  0
    2.1778   59.5520    2.0777 H   0  0  0  0  0
    7.7248   61.6716   -0.8493 H   0  0  0  0  0
  4  1  1  0  0  0
  1  9  1  0  0  0
  2  5  1  0  0  0
  2  6  1  0  0  0
  7  2  1  0  0  0
  9  3  1  0  0  0
  3 10  2  0  0  0
  3 11  1  0  0  0
  8  4  1  0  0  0
  7  8  1  0  0  0
  7  9  1  0  0  0
 11 12  1  0  0  0
 11 16  1  0  0  0
 12 13  1  0  0  0
 13 14  1  0  0  0
 14 15  1  0  0  0
 14 17  1  0  0  0
 15 16  1  0  0  0
 17 18  4  0  0  0
 17 21  4  0  0  0
 18 19  4  0  0  0
 19 20  4  0  0  0
 20 21  4  0  0  0
 20 28  4  0  0  0
 21 22  4  0  0  0
 22 23  4  0  0  0
 22 26  4  0  0  0
 23 24  4  0  0  0
 24 25  4  0  0  0
 25 26  4  0  0  0
 26 27  4  0  0  0
 27 28  4  0  0  0
  1 29  1  0  0  0
  1 30  1  0  0  0
  2 31  1  0  0  0
  4 32  1  0  0  0
  4 33  1  0  0  0
  5 34  1  0  0  0
  5 35  1  0  0  0
  5 36  1  0  0  0
  6 37  1  0  0  0
  6 38  1  0  0  0
  6 39  1  0  0  0
  7 40  1  0  0  0
  8 41  1  0  0  0
  8 42  1  0  0  0
  9 43  1  0  0  0
 12 44  1  0  0  0
 12 45  1  0  0  0
 13 46  1  0  0  0
 13 47  1  0  0  0
 14 48  1  0  0  0
 15 49  1  0  0  0
 15 50  1  0  0  0
 16 51  1  0  0  0
 16 52  1  0  0  0
 18 53  1  0  0  0
 23 54  1  0  0  0
 24 55  1  0  0  0
 28 56  1  0  0  0
M  END
$$$$
