### 
### Created by X-TOOL on Mon Sep 10 21:13:09 2018
### 

@<TRIPOS>MOLECULE
4e5w_ligand
   57    61     1     0     0
SMALL
GAST_HUCK


@<TRIPOS>ATOM
      1 C7          8.8750   51.6780    1.4840 C.3       1 0NT         0.0128
      2 C2          6.8010   49.4460    3.6560 C.3       1 0NT        -0.0245
      3 C10         6.4350   52.2170    1.7150 C.2       1 0NT         0.2271
      4 C6          9.1870   50.2940    0.8880 C.3       1 0NT        -0.0052
      5 C1          6.6220   47.9190    3.6350 C.3       1 0NT        -0.0218
      6 C3          5.4180   50.0150    4.0070 C.3       1 0NT        -0.0218
      7 N4          7.3280   49.9660    2.3570 N.4       1 0NT         0.2559
      8 C5          8.6590   49.3740    2.0010 C.3       1 0NT        -0.0292
      9 C8          7.5890   51.4510    2.3400 C.3       1 0NT         0.0690
     10 O11         5.6610   51.5810    1.0000 O.2       1 0NT        -0.3907
     11 N12         6.2610   53.5640    1.9000 N.am      1 0NT        -0.2684
     12 C13         5.1470   54.2840    1.2400 C.3       1 0NT         0.0368
     13 C14         5.6980   55.4540    0.3810 C.3       1 0NT        -0.0020
     14 C15         6.6340   56.3360    1.2300 C.3       1 0NT         0.0735
     15 C16         7.7670   55.5350    1.9210 C.3       1 0NT        -0.0020
     16 C17         7.1400   54.4030    2.7640 C.3       1 0NT         0.0368
     17 N18         7.1430   57.5410    0.5520 N.pl3     1 0NT        -0.2312
     18 C19         8.4000   57.7170    0.0150 C.2       1 0NT         0.1057
     19 N20         8.5430   58.9400   -0.4080 N.2       1 0NT        -0.3073
     20 C21         7.4090   59.6440   -0.1600 C.ar      1 0NT         0.0457
     21 C22         6.4980   58.7550    0.4600 C.ar      1 0NT         0.0937
     22 C23         5.2420   59.2500    0.8600 C.ar      1 0NT         0.0218
     23 C24         4.0660   58.6630    1.5160 C.2       1 0NT        -0.0603
     24 C25         3.1680   59.6560    1.6340 C.2       1 0NT         0.0217
     25 N26         3.6770   60.8180    1.1160 N.pl3     1 0NT        -0.2734
     26 C28         4.9400   60.6110    0.6160 C.ar      1 0NT         0.1217
     27 N29         5.8390   61.4150    0.0190 N.ar      1 0NT        -0.3020
     28 C30         7.0310   60.9830   -0.3670 C.ar      1 0NT        -0.0037
     29 H1          8.6872   52.4120    0.6865 H         1 0NT         0.0347
     30 H2          9.7060   52.0265    2.1148 H         1 0NT         0.0347
     31 H3          7.5163   49.7191    4.4457 H         1 0NT         0.0846
     32 H4         10.2665   50.1565    0.7276 H         1 0NT         0.0320
     33 H5          8.6519   50.1313   -0.0592 H         1 0NT         0.0320
     34 H6          6.2338   47.5819    4.6075 H         1 0NT         0.0284
     35 H7          7.5924   47.4387    3.4412 H         1 0NT         0.0284
     36 H8          5.9117   47.6439    2.8414 H         1 0NT         0.0284
     37 H9          5.4710   51.1132    4.0400 H         1 0NT         0.0284
     38 H10         5.1031   49.6334    4.9894 H         1 0NT         0.0284
     39 H11         4.6896   49.7059    3.2429 H         1 0NT         0.0284
     40 H12         6.6537   49.7388    1.6431 H         1 0NT         0.2058
     41 H13         9.3352   49.3814    2.8686 H         1 0NT         0.0815
     42 H14         8.5435   48.3432    1.6348 H         1 0NT         0.0815
     43 H15         7.7485   51.8103    3.3673 H         1 0NT         0.1100
     44 H16         4.4685   54.6850    2.0073 H         1 0NT         0.0523
     45 H17         4.5964   53.5859    0.5923 H         1 0NT         0.0523
     46 H18         4.8587   56.0625    0.0130 H         1 0NT         0.0314
     47 H19         6.2578   55.0463   -0.4737 H         1 0NT         0.0314
     48 H20         6.0015   56.7133    2.0471 H         1 0NT         0.0650
     49 H21         8.3461   56.2040    2.5744 H         1 0NT         0.0314
     50 H22         8.4310   55.1023    1.1582 H         1 0NT         0.0314
     51 H23         7.9389   53.7782    3.1897 H         1 0NT         0.0523
     52 H24         6.5434   54.8403    3.5781 H         1 0NT         0.0523
     53 H25         9.1643   56.9437   -0.0467 H         1 0NT         0.1328
     54 H26         3.9459   57.6307    1.8413 H         1 0NT         0.0295
     55 H27         2.1787   59.5521    2.0773 H         1 0NT         0.0917
     56 H28         3.1817   61.7210    1.1032 H         1 0NT         0.2287
     57 H29         7.7210   61.6678   -0.8466 H         1 0NT         0.0712
@<TRIPOS>BOND
     1    4    1 1  
     2    1    9 1  
     3    2    5 1  
     4    2    6 1  
     5    7    2 1  
     6    9    3 1  
     7    3   10 2  
     8    3   11 am 
     9    8    4 1  
    10    7    8 1  
    11    7    9 1  
    12   11   12 1  
    13   11   16 1  
    14   12   13 1  
    15   13   14 1  
    16   14   15 1  
    17   14   17 1  
    18   15   16 1  
    19   17   18 1  
    20   17   21 1  
    21   18   19 2  
    22   19   20 1  
    23   20   21 ar 
    24   20   28 ar 
    25   21   22 ar 
    26   22   23 1  
    27   22   26 ar 
    28   23   24 2  
    29   24   25 1  
    30   25   26 1  
    31   26   27 ar 
    32   27   28 ar 
    33    1   29 1  
    34    1   30 1  
    35    2   31 1  
    36    4   32 1  
    37    4   33 1  
    38    5   34 1  
    39    5   35 1  
    40    5   36 1  
    41    6   37 1  
    42    6   38 1  
    43    6   39 1  
    44    7   40 1  
    45    8   41 1  
    46    8   42 1  
    47    9   43 1  
    48   12   44 1  
    49   12   45 1  
    50   13   46 1  
    51   13   47 1  
    52   14   48 1  
    53   15   49 1  
    54   15   50 1  
    55   16   51 1  
    56   16   52 1  
    57   18   53 1  
    58   23   54 1  
    59   24   55 1  
    60   25   56 1  
    61   28   57 1  
@<TRIPOS>SUBSTRUCTURE
     1 0NT         1

