6jam_ligand
  -I-interpret- 

 45 46  0  0  0  0  0  0  0  0999 V2000
   -6.5600  -32.4040  -14.0960 C   0  0  0  0  0
   -7.8730  -32.1350  -13.3820 C   0  0  0  0  0
   -8.7460  -31.1460  -14.1390 C   0  0  0  0  0
   -7.9720  -29.8470  -14.3340 C   0  0  0  0  0
   -6.6830  -30.2010  -15.0440 C   0  0  0  0  0
   -5.7880  -29.0260  -15.2800 C   0  0  0  0  0
   -6.7950  -33.0570  -15.3300 O   0  0  0  0  0
   -8.5830  -33.3720  -13.2590 O   0  0  0  0  0
   -9.9670  -30.8940  -13.3690 O   0  0  0  0  0
   -8.7290  -28.8990  -15.0710 O   0  0  0  0  0
   -5.9050  -31.1420  -14.2720 O   0  0  0  0  0
   -4.6440  -29.3210  -16.0920 O   0  0  0  0  0
   -5.5960  -33.5550  -15.8900 C   0  0  0  0  0
   -5.8680  -34.1200  -17.2530 C   0  0  0  0  0
   -6.6960  -35.4020  -17.1670 C   0  0  0  0  0
   -6.0060  -36.2930  -16.2030 C   0  0  0  0  0
   -5.8490  -35.6340  -14.8650 C   0  0  0  0  0
   -5.1480  -36.5080  -13.7930 C   0  0  0  0  0
   -6.5240  -33.1900  -18.0950 O   0  0  0  0  0
   -6.7990  -35.9880  -18.5050 O   0  0  0  0  0
   -6.8610  -37.4490  -16.0520 O   0  0  0  0  0
   -4.9960  -34.4990  -15.0450 O   0  0  0  0  0
   -6.1640  -37.0830  -12.9760 O   0  0  0  0  0
   -5.9220  -33.0679  -13.5127 H   0  0  0  0  0
   -7.6461  -31.7029  -12.4074 H   0  0  0  0  0
   -9.0164  -31.5528  -15.1134 H   0  0  0  0  0
   -7.7604  -29.3797  -13.3723 H   0  0  0  0  0
   -7.0051  -30.6165  -15.9988 H   0  0  0  0  0
   -5.4197  -28.6986  -14.3078 H   0  0  0  0  0
   -6.3739  -28.2728  -15.8068 H   0  0  0  0  0
   -8.0409  -34.0048  -12.7822 H   0  0  0  0  0
  -10.4461  -31.7177  -13.2523 H   0  0  0  0  0
   -9.5376  -28.6968  -14.5946 H   0  0  0  0  0
   -4.1172  -28.5260  -16.2016 H   0  0  0  0  0
   -4.8879  -32.7332  -15.9964 H   0  0  0  0  0
   -4.8960  -34.3499  -17.6895 H   0  0  0  0  0
   -7.7139  -35.2256  -16.8193 H   0  0  0  0  0
   -5.0095  -36.5449  -16.5658 H   0  0  0  0  0
   -6.8570  -35.4096  -14.5160 H   0  0  0  0  0
   -4.4723  -35.9016  -13.1899 H   0  0  0  0  0
   -4.5538  -37.2889  -14.2676 H   0  0  0  0  0
   -6.6782  -33.5908  -18.9536 H   0  0  0  0  0
   -7.3179  -36.7945  -18.4608 H   0  0  0  0  0
   -6.4596  -38.0639  -15.4337 H   0  0  0  0  0
   -5.7579  -37.6314  -12.3008 H   0  0  0  0  0
  1  2  1  0  0  0
  7  1  1  0  0  0
  1 11  1  0  0  0
  2  3  1  0  0  0
  2  8  1  0  0  0
  3  4  1  0  0  0
  3  9  1  0  0  0
  5  4  1  0  0  0
  4 10  1  0  0  0
  5  6  1  0  0  0
 11  5  1  0  0  0
  6 12  1  0  0  0
 13  7  1  0  0  0
 13 14  1  0  0  0
 22 13  1  0  0  0
 15 14  1  0  0  0
 14 19  1  0  0  0
 16 15  1  0  0  0
 15 20  1  0  0  0
 17 16  1  0  0  0
 16 21  1  0  0  0
 18 17  1  0  0  0
 17 22  1  0  0  0
 23 18  1  0  0  0
  1 24  1  0  0  0
  2 25  1  0  0  0
  3 26  1  0  0  0
  4 27  1  0  0  0
  5 28  1  0  0  0
  6 29  1  0  0  0
  6 30  1  0  0  0
  8 31  1  0  0  0
  9 32  1  0  0  0
 10 33  1  0  0  0
 12 34  1  0  0  0
 13 35  1  0  0  0
 14 36  1  0  0  0
 15 37  1  0  0  0
 16 38  1  0  0  0
 17 39  1  0  0  0
 18 40  1  0  0  0
 18 41  1  0  0  0
 19 42  1  0  0  0
 20 43  1  0  0  0
 21 44  1  0  0  0
 23 45  1  0  0  0
M  END
$$$$
