### 
### Created by X-TOOL on Sat Aug  7 21:31:17 2021
### 

@<TRIPOS>MOLECULE
6jam_ligand
   45    46     1     0     0
SMALL
GAST_HUCK


@<TRIPOS>ATOM
      1 C1         -6.5600  -32.4040  -14.0960 C.3       1 TRE         0.1909
      2 C2         -7.8730  -32.1350  -13.3820 C.3       1 TRE         0.1342
      3 C3         -8.7460  -31.1460  -14.1390 C.3       1 TRE         0.1141
      4 C4         -7.9720  -29.8470  -14.3340 C.3       1 TRE         0.1119
      5 C5         -6.6830  -30.2010  -15.0440 C.3       1 TRE         0.1130
      6 C6         -5.7880  -29.0260  -15.2800 C.3       1 TRE         0.0730
      7 O1         -6.7950  -33.0570  -15.3300 O.3       1 TRE        -0.3174
      8 O2         -8.5830  -33.3720  -13.2590 O.3       1 TRE        -0.3841
      9 O3         -9.9670  -30.8940  -13.3690 O.3       1 TRE        -0.3864
     10 O4         -8.7290  -28.8990  -15.0710 O.3       1 TRE        -0.3865
     11 O5         -5.9050  -31.1420  -14.2720 O.3       1 TRE        -0.3404
     12 O6         -4.6440  -29.3210  -16.0920 O.3       1 TRE        -0.3924
     13 C1P        -5.5960  -33.5550  -15.8900 C.3       1 TRE         0.1909
     14 C2P        -5.8680  -34.1200  -17.2530 C.3       1 TRE         0.1342
     15 C3P        -6.6960  -35.4020  -17.1670 C.3       1 TRE         0.1141
     16 C4P        -6.0060  -36.2930  -16.2030 C.3       1 TRE         0.1119
     17 C5P        -5.8490  -35.6340  -14.8650 C.3       1 TRE         0.1130
     18 C6P        -5.1480  -36.5080  -13.7930 C.3       1 TRE         0.0730
     19 O2P        -6.5240  -33.1900  -18.0950 O.3       1 TRE        -0.3841
     20 O3P        -6.7990  -35.9880  -18.5050 O.3       1 TRE        -0.3864
     21 O4P        -6.8610  -37.4490  -16.0520 O.3       1 TRE        -0.3865
     22 O5P        -4.9960  -34.4990  -15.0450 O.3       1 TRE        -0.3404
     23 O6P        -6.1640  -37.0830  -12.9760 O.3       1 TRE        -0.3924
     24 H1         -5.9292  -33.0535  -13.4713 H         1 TRE         0.0938
     25 H2         -7.6596  -31.7296  -12.3820 H         1 TRE         0.0671
     26 H3         -9.0126  -31.5644  -15.1208 H         1 TRE         0.0648
     27 H4         -7.7368  -29.4137  -13.3507 H         1 TRE         0.0647
     28 H5         -6.9437  -30.6508  -16.0134 H         1 TRE         0.0647
     29 H6         -5.4352  -28.6580  -14.3053 H         1 TRE         0.0584
     30 H7         -6.3732  -28.2395  -15.7789 H         1 TRE         0.0584
     31 H8         -8.0466  -33.9982  -12.7872 H         1 TRE         0.2101
     32 H9        -10.5125  -30.2726  -13.8369 H         1 TRE         0.2100
     33 H10        -8.9440  -29.2604  -15.9229 H         1 TRE         0.2100
     34 H11        -4.1217  -29.9926  -15.6693 H         1 TRE         0.2095
     35 H12        -4.8960  -32.7142  -16.0038 H         1 TRE         0.0938
     36 H13        -4.8989  -34.3678  -17.7106 H         1 TRE         0.0671
     37 H14        -7.7069  -35.1766  -16.7965 H         1 TRE         0.0648
     38 H15        -5.0191  -36.5842  -16.5917 H         1 TRE         0.0647
     39 H16        -6.8393  -35.3272  -14.4972 H         1 TRE         0.0647
     40 H17        -4.4804  -35.8855  -13.1792 H         1 TRE         0.0584
     41 H18        -4.5636  -37.3026  -14.2800 H         1 TRE         0.0584
     42 H19        -6.0085  -32.3937  -18.1477 H         1 TRE         0.2101
     43 H20        -7.2891  -36.8004  -18.4568 H         1 TRE         0.2100
     44 H21        -6.9676  -37.8748  -16.8945 H         1 TRE         0.2100
     45 H22        -5.7621  -37.6257  -12.3078 H         1 TRE         0.2095
@<TRIPOS>BOND
     1    1    2 1  
     2    7    1 1  
     3    1   11 1  
     4    2    3 1  
     5    2    8 1  
     6    3    4 1  
     7    3    9 1  
     8    5    4 1  
     9    4   10 1  
    10    5    6 1  
    11   11    5 1  
    12    6   12 1  
    13   13    7 1  
    14   13   14 1  
    15   22   13 1  
    16   15   14 1  
    17   14   19 1  
    18   16   15 1  
    19   15   20 1  
    20   17   16 1  
    21   16   21 1  
    22   18   17 1  
    23   17   22 1  
    24   23   18 1  
    25    1   24 1  
    26    2   25 1  
    27    3   26 1  
    28    4   27 1  
    29    5   28 1  
    30    6   29 1  
    31    6   30 1  
    32    8   31 1  
    33    9   32 1  
    34   10   33 1  
    35   12   34 1  
    36   13   35 1  
    37   14   36 1  
    38   15   37 1  
    39   16   38 1  
    40   17   39 1  
    41   18   40 1  
    42   18   41 1  
    43   19   42 1  
    44   20   43 1  
    45   21   44 1  
    46   23   45 1  
@<TRIPOS>SUBSTRUCTURE
     1 TRE         1

