3po1_ligand
  -I-interpret- 

 35 36  0  0  0  0  0  0  0  0999 V2000
   19.8380  -12.0960   20.0850 C   0  0  0  0  0
   18.5770  -12.2900   20.9350 C   0  0  0  0  0
   17.5090  -11.4390   20.4140 O   0  0  0  0  0
   16.2900  -11.6030   20.9340 C   0  0  0  0  0
   16.1190  -12.2710   21.9490 O   0  0  0  0  0
   15.1420  -10.9060   20.2340 C   0  0  0  0  0
   10.7270   -8.9010   24.5660 O   0  0  0  0  0
   11.5110   -9.4980   23.6190 C   0  0  0  0  0
   12.5050   -8.7710   22.9760 C   0  0  0  0  0
   13.3250   -9.3340   22.0150 C   0  0  0  0  0
   13.1300  -10.6840   21.6570 C   0  0  0  0  0
   13.8930  -11.4370   20.7890 N   0  3  0  0  0
   13.6690  -12.7590   20.6360 C   0  0  0  0  0
   14.4340  -13.5860   19.9390 N   0  0  0  0  0
   14.2020  -14.9010   19.9260 C   0  0  0  0  0
   13.7690  -15.4820   21.1080 N   0  0  0  0  0
   14.4830  -15.6550   18.8070 N   0  0  0  0  0
   12.2280  -13.0550   21.6500 S   0  0  0  0  0
   12.1350  -11.4050   22.3370 C   0  0  0  0  0
   11.3210  -10.8380   23.2880 C   0  0  0  0  0
   19.6237  -12.3690   19.0517 H   0  0  0  0  0
   20.1475  -11.0518   20.1295 H   0  0  0  0  0
   20.6362  -12.7297   20.4715 H   0  0  0  0  0
   18.7884  -12.0189   21.9694 H   0  0  0  0  0
   18.2655  -13.3337   20.8935 H   0  0  0  0  0
   15.1868  -11.0866   19.1600 H   0  0  0  0  0
   15.1994   -9.8290   20.3916 H   0  0  0  0  0
   10.0966   -9.5397   24.9070 H   0  0  0  0  0
   12.6433   -7.7219   23.2376 H   0  0  0  0  0
   14.1096   -8.7436   21.5418 H   0  0  0  0  0
   15.2157  -13.2109   19.4017 H   0  0  0  0  0
   13.6507  -16.4935   21.1657 H   0  0  0  0  0
   13.5688  -14.8980   21.9199 H   0  0  0  0  0
   14.8727  -15.2093   17.9764 H   0  0  0  0  0
   10.5418  -11.4252   23.7740 H   0  0  0  0  0
  2  1  1  0  0  0
  3  2  1  0  0  0
  4  3  1  0  0  0
  4  5  2  0  0  0
  6  4  1  0  0  0
 12  6  1  0  0  0
  8  7  1  0  0  0
  9  8  4  0  0  0
  8 20  4  0  0  0
 10  9  4  0  0  0
 11 10  4  0  0  0
 11 12  4  0  0  0
 11 19  4  0  0  0
 12 13  4  0  0  0
 13 14  1  0  0  0
 13 18  4  0  0  0
 14 15  1  0  0  0
 15 16  1  0  0  0
 15 17  2  0  0  0
 18 19  4  0  0  0
 19 20  4  0  0  0
  1 21  1  0  0  0
  1 22  1  0  0  0
  1 23  1  0  0  0
  2 24  1  0  0  0
  2 25  1  0  0  0
  6 26  1  0  0  0
  6 27  1  0  0  0
  7 28  1  0  0  0
  9 29  1  0  0  0
 10 30  1  0  0  0
 14 31  1  0  0  0
 16 32  1  0  0  0
 16 33  1  0  0  0
 17 34  1  0  0  0
 20 35  1  0  0  0
M  END
$$$$
