### 
### Created by X-TOOL on Mon Sep 10 21:13:07 2018
### 

@<TRIPOS>MOLECULE
3po1_ligand
   36    37     1     0     0
SMALL
GAST_HUCK


@<TRIPOS>ATOM
      1 C1         19.8380  -12.0960   20.0850 C.3       1 MKY        -0.0371
      2 C2         18.5770  -12.2900   20.9350 C.3       1 MKY         0.0740
      3 O3         17.5090  -11.4390   20.4140 O.3       1 MKY        -0.2757
      4 C4         16.2900  -11.6030   20.9340 C.2       1 MKY         0.2568
      5 O5         16.1190  -12.2710   21.9490 O.2       1 MKY        -0.3683
      6 C6         15.1420  -10.9060   20.2340 C.3       1 MKY         0.1566
      7 O7         10.7270   -8.9010   24.5660 O.3       1 MKY        -0.2342
      8 C8         11.5110   -9.4980   23.6190 C.ar      1 MKY         0.2307
      9 C9         12.5050   -8.7710   22.9760 C.ar      1 MKY         0.0855
     10 C10        13.3250   -9.3340   22.0150 C.ar      1 MKY         0.0676
     11 C11        13.1300  -10.6840   21.6570 C.ar      1 MKY         0.1956
     12 N12        13.8930  -11.4370   20.7890 N.2       1 MKY        -0.1684
     13 C13        13.6690  -12.7590   20.6360 C.2       1 MKY         0.3405
     14 N14        14.4340  -13.5860   19.9390 N.pl3     1 MKY        -0.1831
     15 C15        14.2020  -14.9010   19.9260 C.cat     1 MKY         0.1777
     16 N16        13.7690  -15.4820   21.1080 N.pl3     1 MKY        -0.3473
     17 N17        14.4830  -15.6550   18.8070 N.pl3     1 MKY        -0.3473
     18 S18        12.2280  -13.0550   21.6500 S.3       1 MKY         0.1548
     19 C19        12.1350  -11.4050   22.3370 C.ar      1 MKY         0.1919
     20 C20        11.3210  -10.8380   23.2880 C.ar      1 MKY         0.1109
     21 H1         20.6443  -12.7350   20.4741 H         1 MKY         0.0255
     22 H2         20.1515  -11.0425   20.1291 H         1 MKY         0.0255
     23 H3         19.6231  -12.3713   19.0419 H         1 MKY         0.0255
     24 H4         18.7908  -12.0144   21.9782 H         1 MKY         0.0610
     25 H5         18.2624  -13.3431   20.8910 H         1 MKY         0.0610
     26 H6         15.1860  -11.1050   19.1531 H         1 MKY         0.0781
     27 H7         15.1989   -9.8216   20.4098 H         1 MKY         0.0781
     28 H8         10.1032   -9.5330   24.9034 H         1 MKY         0.3165
     29 H9         12.6425   -7.7277   23.2362 H         1 MKY         0.0968
     30 H10        14.1053   -8.7468   21.5444 H         1 MKY         0.1175
     31 H11        15.2233  -13.2072   19.3964 H         1 MKY         0.2599
     32 H12        13.5775  -16.4934   21.1448 H         1 MKY         0.1672
     33 H13        13.6388  -14.9023   21.9493 H         1 MKY         0.1672
     34 H14        14.8030  -15.1947   17.9429 H         1 MKY         0.1672
     35 H15        14.3729  -16.6787   18.8348 H         1 MKY         0.1672
     36 H16        10.5461  -11.4220   23.7713 H         1 MKY         0.1043
@<TRIPOS>BOND
     1    2    1 1  
     2    3    2 1  
     3    4    3 1  
     4    4    5 2  
     5    6    4 1  
     6   12    6 1  
     7    8    7 1  
     8    9    8 ar 
     9    8   20 ar 
    10   10    9 ar 
    11   11   10 ar 
    12   11   12 1  
    13   11   19 ar 
    14   12   13 2  
    15   13   14 1  
    16   13   18 1  
    17   14   15 ar 
    18   15   16 ar 
    19   15   17 ar 
    20   18   19 1  
    21   19   20 ar 
    22    1   21 1  
    23    1   22 1  
    24    1   23 1  
    25    2   24 1  
    26    2   25 1  
    27    6   26 1  
    28    6   27 1  
    29    7   28 1  
    30    9   29 1  
    31   10   30 1  
    32   14   31 1  
    33   16   32 1  
    34   16   33 1  
    35   17   34 1  
    36   17   35 1  
    37   20   36 1  
@<TRIPOS>SUBSTRUCTURE
     1 MKY         1

