### 
### Created by X-TOOL on Mon Sep 10 21:13:11 2018
### 

@<TRIPOS>MOLECULE
4ea2_ligand
   64    66     1     0     0
SMALL
GAST_HUCK


@<TRIPOS>ATOM
      1 CAA       -28.1770  -10.5540   -7.8900 C.3       1 RWZ        -0.0406
      2 CAB       -26.1730  -11.0390   -6.2920 C.3       1 RWZ        -0.0406
      3 CAC       -24.6530  -15.7330   -8.8150 C.3       1 RWZ        -0.0401
      4 CAD       -26.7430  -12.6270   -8.0540 C.2       1 RWZ        -0.1074
      5 CAE       -22.4240  -14.6930   -8.8840 C.2       1 RWZ        -0.0647
      6 CAF       -25.7230  -13.4570   -7.6630 C.3       1 RWZ        -0.0388
      7 CAG       -21.4680  -13.7220   -8.8200 C.3       1 RWZ        -0.0267
      8 CAH       -20.1210  -15.6310   -8.2750 C.3       1 RWZ         0.0081
      9 CAI       -21.3150  -16.3980   -7.8140 C.3       1 RWZ         0.0077
     10 CAJ       -24.4350  -13.2160   -8.4240 C.3       1 RWZ        -0.0252
     11 CAK       -23.1400  -20.2180   -5.9240 C.3       1 RWZ        -0.0473
     12 CAL       -21.7110  -19.9430   -7.9030 C.3       1 RWZ        -0.0422
     13 CAM       -24.1020  -20.0310   -8.1940 C.3       1 RWZ        -0.0422
     14 CAN       -21.9710  -18.0740   -6.2480 C.3       1 RWZ        -0.0422
     15 CAO       -24.3890  -18.2130   -6.4920 C.3       1 RWZ        -0.0422
     16 NAP       -20.3520  -14.2200   -8.0310 N.4       1 RWZ         0.2370
     17 NAQ       -21.6980  -17.2760   -8.8970 N.4       1 RWZ         0.2333
     18 CAR       -27.0420  -11.4490   -7.4370 C.2       1 RWZ        -0.0870
     19 CAS       -23.7750  -14.5320   -8.7170 C.2       1 RWZ        -0.0780
     20 CAT       -21.8840  -19.5830   -6.4350 C.3       1 RWZ        -0.0399
     21 CAU       -24.2990  -19.6980   -6.7290 C.3       1 RWZ        -0.0399
     22 CAV       -22.8530  -19.3720   -8.7100 C.3       1 RWZ         0.0028
     23 CAW       -23.1450  -17.5450   -7.0310 C.3       1 RWZ         0.0028
     24 CAX       -22.9470  -17.8780   -8.4970 C.3       1 RWZ        -0.0167
     25 H1        -28.2238   -9.6655   -7.2432 H         1 RWZ         0.0375
     26 H2        -29.1268  -11.1051   -7.8253 H         1 RWZ         0.0375
     27 H3        -28.0046  -10.2414   -8.9304 H         1 RWZ         0.0375
     28 H4        -25.4115  -11.8127   -6.1143 H         1 RWZ         0.0375
     29 H5        -26.7894  -10.9170   -5.3891 H         1 RWZ         0.0375
     30 H6        -25.6785  -10.0857   -6.5300 H         1 RWZ         0.0375
     31 H7        -24.0388  -16.6195   -9.0318 H         1 RWZ         0.0375
     32 H8        -25.3847  -15.5873   -9.6233 H         1 RWZ         0.0375
     33 H9        -25.1832  -15.8784   -7.8622 H         1 RWZ         0.0375
     34 H10       -27.3493  -12.9270   -8.9074 H         1 RWZ         0.0244
     35 H11       -22.0767  -15.7044   -9.0898 H         1 RWZ         0.0294
     36 H12       -26.0368  -14.4984   -7.8271 H         1 RWZ         0.0361
     37 H13       -25.5319  -13.2960   -6.5918 H         1 RWZ         0.0361
     38 H14       -21.8853  -12.8220   -8.3447 H         1 RWZ         0.0887
     39 H15       -21.1229  -13.4743   -9.8347 H         1 RWZ         0.0887
     40 H16       -19.9652  -15.7999   -9.3507 H         1 RWZ         0.0867
     41 H17       -19.2313  -15.9619   -7.7192 H         1 RWZ         0.0867
     42 H18       -22.1387  -15.7084   -7.5776 H         1 RWZ         0.0867
     43 H19       -21.0630  -16.9881   -6.9206 H         1 RWZ         0.0867
     44 H20       -23.7606  -12.5945   -7.8165 H         1 RWZ         0.0425
     45 H21       -24.6583  -12.6991   -9.3689 H         1 RWZ         0.0425
     46 H22       -23.2803  -19.9620   -4.8634 H         1 RWZ         0.0271
     47 H23       -23.0739  -21.3107   -6.0319 H         1 RWZ         0.0271
     48 H24       -21.6993  -21.0376   -8.0113 H         1 RWZ         0.0273
     49 H25       -20.7611  -19.5280   -8.2709 H         1 RWZ         0.0273
     50 H26       -24.9677  -19.6703   -8.7688 H         1 RWZ         0.0273
     51 H27       -24.0129  -21.1212   -8.3106 H         1 RWZ         0.0273
     52 H28       -21.0449  -17.6042   -6.6109 H         1 RWZ         0.0273
     53 H29       -22.1059  -17.8425   -5.1811 H         1 RWZ         0.0273
     54 H30       -24.4728  -18.0175   -5.4128 H         1 RWZ         0.0273
     55 H31       -25.2741  -17.8116   -7.0072 H         1 RWZ         0.0273
     56 H32       -20.5554  -14.0851   -7.0530 H         1 RWZ         0.2023
     57 H33       -19.5211  -13.7044   -8.2756 H         1 RWZ         0.2023
     58 H34       -20.9962  -17.9857   -9.0376 H         1 RWZ         0.2018
     59 H35       -21.8193  -16.7501   -9.7483 H         1 RWZ         0.2018
     60 H36       -21.0231  -19.9654   -5.8670 H         1 RWZ         0.0301
     61 H37       -25.2286  -20.1736   -6.3833 H         1 RWZ         0.0301
     62 H38       -22.7143  -19.5883   -9.7796 H         1 RWZ         0.0356
     63 H39       -23.2238  -16.4547   -6.9084 H         1 RWZ         0.0356
     64 H40       -23.7788  -17.4713   -9.0909 H         1 RWZ         0.0856
@<TRIPOS>BOND
     1   18    1 1  
     2   18    2 1  
     3   19    3 1  
     4    6    4 1  
     5    4   18 2  
     6    7    5 1  
     7    5   19 2  
     8   10    6 1  
     9   16    7 1  
    10    9    8 1  
    11    8   16 1  
    12   17    9 1  
    13   19   10 1  
    14   20   11 1  
    15   21   11 1  
    16   12   20 1  
    17   22   12 1  
    18   13   21 1  
    19   22   13 1  
    20   20   14 1  
    21   14   23 1  
    22   21   15 1  
    23   15   23 1  
    24   24   17 1  
    25   22   24 1  
    26   23   24 1  
    27    1   25 1  
    28    1   26 1  
    29    1   27 1  
    30    2   28 1  
    31    2   29 1  
    32    2   30 1  
    33    3   31 1  
    34    3   32 1  
    35    3   33 1  
    36    4   34 1  
    37    5   35 1  
    38    6   36 1  
    39    6   37 1  
    40    7   38 1  
    41    7   39 1  
    42    8   40 1  
    43    8   41 1  
    44    9   42 1  
    45    9   43 1  
    46   10   44 1  
    47   10   45 1  
    48   11   46 1  
    49   11   47 1  
    50   12   48 1  
    51   12   49 1  
    52   13   50 1  
    53   13   51 1  
    54   14   52 1  
    55   14   53 1  
    56   15   54 1  
    57   15   55 1  
    58   16   56 1  
    59   16   57 1  
    60   17   58 1  
    61   17   59 1  
    62   20   60 1  
    63   21   61 1  
    64   22   62 1  
    65   23   63 1  
    66   24   64 1  
@<TRIPOS>SUBSTRUCTURE
     1 RWZ         1

