4ea2_ligand
  -I-interpret- 

 64 66  0  0  0  0  0  0  0  0999 V2000
  -28.1770  -10.5540   -7.8900 C   0  0  0  0  0
  -26.1730  -11.0390   -6.2920 C   0  0  0  0  0
  -24.6530  -15.7330   -8.8150 C   0  0  0  0  0
  -26.7430  -12.6270   -8.0540 C   0  0  0  0  0
  -22.4240  -14.6930   -8.8840 C   0  0  0  0  0
  -25.7230  -13.4570   -7.6630 C   0  0  0  0  0
  -21.4680  -13.7220   -8.8200 C   0  0  0  0  0
  -20.1210  -15.6310   -8.2750 C   0  0  0  0  0
  -21.3150  -16.3980   -7.8140 C   0  0  0  0  0
  -24.4350  -13.2160   -8.4240 C   0  0  0  0  0
  -23.1400  -20.2180   -5.9240 C   0  0  0  0  0
  -21.7110  -19.9430   -7.9030 C   0  0  0  0  0
  -24.1020  -20.0310   -8.1940 C   0  0  0  0  0
  -21.9710  -18.0740   -6.2480 C   0  0  0  0  0
  -24.3890  -18.2130   -6.4920 C   0  0  0  0  0
  -20.3520  -14.2200   -8.0310 N   0  3  0  0  0
  -21.6980  -17.2760   -8.8970 N   0  3  0  0  0
  -27.0420  -11.4490   -7.4370 C   0  0  0  0  0
  -23.7750  -14.5320   -8.7170 C   0  0  0  0  0
  -21.8840  -19.5830   -6.4350 C   0  0  0  0  0
  -24.2990  -19.6980   -6.7290 C   0  0  0  0  0
  -22.8530  -19.3720   -8.7100 C   0  0  0  0  0
  -23.1450  -17.5450   -7.0310 C   0  0  0  0  0
  -22.9470  -17.8780   -8.4970 C   0  0  0  0  0
  -28.0050  -10.2450   -8.9210 H   0  0  0  0  0
  -29.1175  -11.1012   -7.8254 H   0  0  0  0  0
  -28.2224   -9.6740   -7.2484 H   0  0  0  0  0
  -26.2207  -11.7981   -5.5113 H   0  0  0  0  0
  -25.1443  -10.9352   -6.6372 H   0  0  0  0  0
  -26.5225  -10.0857   -5.8955 H   0  0  0  0  0
  -24.5458  -16.1802   -9.8032 H   0  0  0  0  0
  -24.3625  -16.4570   -8.0537 H   0  0  0  0  0
  -25.6904  -15.4368   -8.6595 H   0  0  0  0  0
  -27.3499  -12.9272   -8.9082 H   0  0  0  0  0
  -22.0764  -15.7053   -9.0900 H   0  0  0  0  0
  -26.0367  -14.4822   -7.8595 H   0  0  0  0  0
  -25.5254  -13.2646   -6.6085 H   0  0  0  0  0
  -21.8799  -12.8260   -8.3557 H   0  0  0  0  0
  -21.1285  -13.4690   -9.8244 H   0  0  0  0  0
  -19.9600  -15.8012   -9.3395 H   0  0  0  0  0
  -19.2362  -15.9609   -7.7306 H   0  0  0  0  0
  -22.1315  -15.7229   -7.5579 H   0  0  0  0  0
  -21.0819  -16.9715   -6.9169 H   0  0  0  0  0
  -23.7668  -12.5997   -7.8225 H   0  0  0  0  0
  -24.6560  -12.7033   -9.3602 H   0  0  0  0  0
  -23.2788  -19.9735   -4.8709 H   0  0  0  0  0
  -23.0755  -21.3017   -6.0217 H   0  0  0  0  0
  -21.7030  -21.0278   -8.0087 H   0  0  0  0  0
  -20.7709  -19.5282   -8.2667 H   0  0  0  0  0
  -24.9588  -19.6681   -8.7618 H   0  0  0  0  0
  -24.0090  -21.1112   -8.3060 H   0  0  0  0  0
  -21.0529  -17.6074   -6.6050 H   0  0  0  0  0
  -22.1023  -17.8432   -5.1908 H   0  0  0  0  0
  -24.4735  -18.0185   -5.4228 H   0  0  0  0  0
  -25.2667  -17.8148   -7.0010 H   0  0  0  0  0
  -20.5712  -14.0933   -7.0429 H   0  0  0  0  0
  -19.5127  -13.7036   -8.2942 H   0  0  0  0  0
  -20.9844  -17.9843   -9.0688 H   0  0  0  0  0
  -21.7989  -16.7616   -9.7720 H   0  0  0  0  0
  -21.0190  -19.9480   -5.8812 H   0  0  0  0  0
  -25.2350  -20.1657   -6.4237 H   0  0  0  0  0
  -22.7098  -19.5517   -9.7755 H   0  0  0  0  0
  -23.2374  -16.4632   -6.9342 H   0  0  0  0  0
  -23.7909  -17.5061   -9.0780 H   0  0  0  0  0
 18  1  1  0  0  0
 18  2  1  0  0  0
 19  3  1  0  0  0
  6  4  1  0  0  0
  4 18  2  0  0  0
  7  5  1  0  0  0
  5 19  2  0  0  0
 10  6  1  0  0  0
 16  7  1  0  0  0
  9  8  1  0  0  0
  8 16  1  0  0  0
 17  9  1  0  0  0
 19 10  1  0  0  0
 20 11  1  0  0  0
 21 11  1  0  0  0
 12 20  1  0  0  0
 22 12  1  0  0  0
 13 21  1  0  0  0
 22 13  1  0  0  0
 20 14  1  0  0  0
 14 23  1  0  0  0
 21 15  1  0  0  0
 15 23  1  0  0  0
 24 17  1  0  0  0
 22 24  1  0  0  0
 23 24  1  0  0  0
  1 25  1  0  0  0
  1 26  1  0  0  0
  1 27  1  0  0  0
  2 28  1  0  0  0
  2 29  1  0  0  0
  2 30  1  0  0  0
  3 31  1  0  0  0
  3 32  1  0  0  0
  3 33  1  0  0  0
  4 34  1  0  0  0
  5 35  1  0  0  0
  6 36  1  0  0  0
  6 37  1  0  0  0
  7 38  1  0  0  0
  7 39  1  0  0  0
  8 40  1  0  0  0
  8 41  1  0  0  0
  9 42  1  0  0  0
  9 43  1  0  0  0
 10 44  1  0  0  0
 10 45  1  0  0  0
 11 46  1  0  0  0
 11 47  1  0  0  0
 12 48  1  0  0  0
 12 49  1  0  0  0
 13 50  1  0  0  0
 13 51  1  0  0  0
 14 52  1  0  0  0
 14 53  1  0  0  0
 15 54  1  0  0  0
 15 55  1  0  0  0
 16 56  1  0  0  0
 16 57  1  0  0  0
 17 58  1  0  0  0
 17 59  1  0  0  0
 20 60  1  0  0  0
 21 61  1  0  0  0
 22 62  1  0  0  0
 23 63  1  0  0  0
 24 64  1  0  0  0
M  END
$$$$
