### 
### Created by X-TOOL on Mon Sep 10 21:12:50 2018
### 

@<TRIPOS>MOLECULE
1p1o_ligand
   20    20     1     0     0
SMALL
GAST_HUCK


@<TRIPOS>ATOM
      1 C01        14.8140    1.2690   18.5500 C.2       1 QUS         0.0866
      2 C02        14.6700    1.5780   17.0550 C.3       1 QUS         0.0520
      3 C03        16.0570    2.0870   16.6370 C.3       1 QUS         0.1233
      4 C04        16.5890    0.3950   14.8250 C.2       1 QUS         0.3201
      5 C05        15.8780    1.6490   13.0980 C.2       1 QUS         0.3771
      6 NP3        13.5190    2.5360   16.9410 N.4       1 QUS         0.2342
      7 N14        16.3790    1.6670   15.2710 N.am      1 QUS        -0.0915
      8 N15        16.2850    0.4170   13.5050 N.am      1 QUS        -0.1566
      9 O16        13.9960    1.7570   19.3480 O.co2     1 QUS        -0.5642
     10 O17        15.7640    0.5270   18.8920 O.co2     1 QUS        -0.5642
     11 O18        16.9670   -0.5020   15.5150 O.2       1 QUS        -0.3935
     12 O19        15.5250    2.0420   12.0010 O.2       1 QUS        -0.3705
     13 O20        15.9150    2.4860   14.1900 O.3       1 QUS        -0.1145
     14 H1         14.4326    0.6714   16.4790 H         1 QUS         0.1046
     15 H2         16.8122    1.6808   17.3259 H         1 QUS         0.0630
     16 H3         16.0676    3.1858   16.6877 H         1 QUS         0.0630
     17 H4         12.6721    2.0812   17.2443 H         1 QUS         0.2011
     18 H5         13.4185    2.8279   15.9814 H         1 QUS         0.2011
     19 H6         13.6938    3.3418   17.5208 H         1 QUS         0.2011
     20 H7         16.3519   -0.3779   12.9019 H         1 QUS         0.2278
@<TRIPOS>BOND
     1    2    1 1  
     2    1    9 ar 
     3    1   10 ar 
     4    3    2 1  
     5    2    6 1  
     6    7    3 1  
     7   13    7 1  
     8    5   13 1  
     9    5   12 2  
    10    4   11 2  
    11    8    5 am 
    12    8    4 am 
    13    7    4 am 
    14    2   14 1  
    15    3   15 1  
    16    3   16 1  
    17    6   17 1  
    18    6   18 1  
    19    6   19 1  
    20    8   20 1  
@<TRIPOS>SUBSTRUCTURE
     1 QUS         1

