1p1o_ligand
  -I-interpret- 

 21 21  0  0  0  0  0  0  0  0999 V2000
   14.8140    1.2690   18.5500 C   0  0  0  0  0
   14.6700    1.5780   17.0550 C   0  0  0  0  0
   16.0570    2.0870   16.6370 C   0  0  0  0  0
   16.5890    0.3950   14.8250 C   0  0  0  0  0
   15.8780    1.6490   13.0980 C   0  0  0  0  0
   13.5190    2.5360   16.9410 N   0  3  0  0  0
   16.3790    1.6670   15.2710 N   0  0  0  0  0
   16.2850    0.4170   13.5050 N   0  0  0  0  0
   13.9960    1.7570   19.3480 O   0  0  0  0  0
   15.7640    0.5270   18.8920 O   0  0  0  0  0
   16.9670   -0.5020   15.5150 O   0  0  0  0  0
   15.5250    2.0420   12.0010 O   0  0  0  0  0
   15.9150    2.4860   14.1900 O   0  0  0  0  0
   14.4228    0.7556   16.3837 H   0  0  0  0  0
   16.8018    1.6716   17.3159 H   0  0  0  0  0
   16.0573    3.1762   16.6778 H   0  0  0  0  0
   12.6626    2.0748   17.2481 H   0  0  0  0  0
   13.6971    3.3509   17.5280 H   0  0  0  0  0
   13.4183    2.8306   15.9697 H   0  0  0  0  0
   16.3533   -0.3938   12.8899 H   0  0  0  0  0
   16.2634    0.2692   18.1137 H   0  0  0  0  0
  2  1  1  0  0  0
  1  9  2  0  0  0
  1 10  1  0  0  0
  3  2  1  0  0  0
  2  6  1  0  0  0
  7  3  1  0  0  0
 13  7  1  0  0  0
  5 13  1  0  0  0
  5 12  2  0  0  0
  4 11  2  0  0  0
  8  5  1  0  0  0
  8  4  1  0  0  0
  7  4  1  0  0  0
  2 14  1  0  0  0
  3 15  1  0  0  0
  3 16  1  0  0  0
  6 17  1  0  0  0
  6 18  1  0  0  0
  6 19  1  0  0  0
  8 20  1  0  0  0
 10 21  1  0  0  0
M  END
$$$$
