2wyj_ligand
  -I-interpret- 

 54 56  0  0  0  0  0  0  0  0999 V2000
   13.8460    7.2030   26.2060 Cl  0  0  0  0  0
   12.1140    7.3220   26.3700 C   0  0  0  0  0
   11.3460    6.8890   27.4040 C   0  0  0  0  0
    9.9570    7.1490   27.1930 C   0  0  0  0  0
   11.2210    8.0530   25.1210 S   0  0  0  0  0
    9.7400    7.8050   25.9360 C   0  0  0  0  0
    8.4480    8.2260   25.4220 C   0  0  0  0  0
    8.1810    8.6580   24.1800 C   0  0  0  0  0
    6.5550    9.1380   23.8130 S   0  0  0  0  0
    6.6210   10.3440   23.0560 O   0  0  0  0  0
    5.8500    9.1080   25.0740 O   0  0  0  0  0
    5.8390    8.1320   22.7580 N   0  0  0  0  0
    5.8520    6.6830   22.8500 C   0  0  0  0  0
    4.5020    6.0540   22.5210 C   0  0  0  0  0
    4.8590    4.7080   21.8690 C   0  0  0  0  0
    6.7830    6.0510   21.8280 C   0  0  0  0  0
    7.8600    6.4720   21.4430 O   0  0  0  0  0
    6.2280    4.9070   21.3940 N   0  0  0  0  0
    6.9130    3.9680   20.5730 C   0  0  0  0  0
    7.6000    4.3670   19.4180 C   0  0  0  0  0
    7.6320    5.6500   19.0660 F   0  0  0  0  0
    6.8770    2.6120   20.9520 C   0  0  0  0  0
    7.5520    1.6880   20.1400 C   0  0  0  0  0
    8.2310    2.1090   18.9730 C   0  0  0  0  0
    8.2590    3.4630   18.6070 C   0  0  0  0  0
    8.9350    1.1180   18.1000 C   0  0  0  0  0
   10.3900    1.5450   17.8440 C   0  0  0  0  0
    8.1890    0.8820   16.8140 N   0  3  0  0  0
    6.8160    0.3800   17.0150 C   0  0  0  0  0
    8.1850    1.9860   15.8160 C   0  0  0  0  0
   11.7441    6.3993   28.2927 H   0  0  0  0  0
    9.1663    6.8838   27.8948 H   0  0  0  0  0
    7.6091    8.1869   26.1169 H   0  0  0  0  0
    8.9638    8.7060   23.4230 H   0  0  0  0  0
    5.3425    8.5498   21.9710 H   0  0  0  0  0
    6.1569    6.4991   23.8802 H   0  0  0  0  0
    3.9055    6.6842   21.8613 H   0  0  0  0  0
    3.8807    5.9285   23.4077 H   0  0  0  0  0
    4.1739    4.4402   21.0646 H   0  0  0  0  0
    4.7770    3.8733   22.5652 H   0  0  0  0  0
    6.3426    2.2911   21.8462 H   0  0  0  0  0
    7.5531    0.6325   20.4120 H   0  0  0  0  0
    8.7845    3.7918   17.7104 H   0  0  0  0  0
    8.9591    0.1667   18.6315 H   0  0  0  0  0
   10.4006    2.5166   17.3500 H   0  0  0  0  0
   10.9198    1.6132   18.7941 H   0  0  0  0  0
   10.8772    0.8068   17.2070 H   0  0  0  0  0
    8.7625    0.1501   16.3947 H   0  0  0  0  0
    6.8521   -0.5682   17.5514 H   0  0  0  0  0
    6.2465    1.1058   17.5955 H   0  0  0  0  0
    6.3388    0.2329   16.0461 H   0  0  0  0  0
    7.7299    2.8722   16.2583 H   0  0  0  0  0
    9.2099    2.2111   15.5210 H   0  0  0  0  0
    7.6123    1.6804   14.9404 H   0  0  0  0  0
  1  2  1  0  0  0
  2  3  4  0  0  0
  2  5  4  0  0  0
  3  4  4  0  0  0
  4  6  4  0  0  0
  5  6  4  0  0  0
  6  7  1  0  0  0
  7  8  2  0  0  0
  8  9  1  0  0  0
  9 10  2  0  0  0
  9 11  2  0  0  0
  9 12  1  0  0  0
 12 13  1  0  0  0
 13 14  1  0  0  0
 13 16  1  0  0  0
 14 15  1  0  0  0
 15 18  1  0  0  0
 16 17  2  0  0  0
 16 18  1  0  0  0
 18 19  1  0  0  0
 19 20  4  0  0  0
 19 22  4  0  0  0
 20 21  1  0  0  0
 20 25  4  0  0  0
 22 23  4  0  0  0
 23 24  4  0  0  0
 24 25  4  0  0  0
 24 26  1  0  0  0
 26 27  1  0  0  0
 26 28  1  0  0  0
 28 29  1  0  0  0
 28 30  1  0  0  0
  3 31  1  0  0  0
  4 32  1  0  0  0
  7 33  1  0  0  0
  8 34  1  0  0  0
 12 35  1  0  0  0
 13 36  1  0  0  0
 14 37  1  0  0  0
 14 38  1  0  0  0
 15 39  1  0  0  0
 15 40  1  0  0  0
 22 41  1  0  0  0
 23 42  1  0  0  0
 25 43  1  0  0  0
 26 44  1  0  0  0
 27 45  1  0  0  0
 27 46  1  0  0  0
 27 47  1  0  0  0
 28 48  1  0  0  0
 29 49  1  0  0  0
 29 50  1  0  0  0
 29 51  1  0  0  0
 30 52  1  0  0  0
 30 53  1  0  0  0
 30 54  1  0  0  0
M  END
$$$$
