### 
### Created by X-TOOL on Mon Sep 10 21:13:03 2018
### 

@<TRIPOS>MOLECULE
2wyj_ligand
   54    56     1     0     0
SMALL
GAST_HUCK


@<TRIPOS>ATOM
      1 CL1        13.8460    7.2030   26.2060 Cl        1 898        -0.0541
      2 C1         12.1140    7.3220   26.3700 C.2       1 898         0.0969
      3 C2         11.3460    6.8890   27.4040 C.2       1 898        -0.0580
      4 C3          9.9570    7.1490   27.1930 C.2       1 898        -0.0663
      5 S2         11.2210    8.0530   25.1210 S.3       1 898        -0.0265
      6 C4          9.7400    7.8050   25.9360 C.2       1 898         0.0287
      7 C5          8.4480    8.2260   25.4220 C.2       1 898        -0.0314
      8 C6          8.1810    8.6580   24.1800 C.2       1 898         0.0664
      9 S1          6.5550    9.1380   23.8130 S.o2      1 898         0.0601
     10 O2          6.6210   10.3440   23.0560 O.2       1 898        -0.1518
     11 O1          5.8500    9.1080   25.0740 O.2       1 898        -0.1518
     12 N1          5.8390    8.1320   22.7580 N.am      1 898        -0.2263
     13 C12         5.8520    6.6830   22.8500 C.3       1 898         0.1339
     14 C13         4.5020    6.0540   22.5210 C.3       1 898         0.0097
     15 C14         4.8590    4.7080   21.8690 C.3       1 898         0.0574
     16 C50         6.7830    6.0510   21.8280 C.2       1 898         0.2252
     17 O3          7.8600    6.4720   21.4430 O.2       1 898        -0.3840
     18 N2          6.2280    4.9070   21.3940 N.am      1 898        -0.2214
     19 C15         6.9130    3.9680   20.5730 C.ar      1 898         0.0963
     20 C21         7.6000    4.3670   19.4180 C.ar      1 898         0.1460
     21 F1          7.6320    5.6500   19.0660 F         1 898        -0.1953
     22 C22         6.8770    2.6120   20.9520 C.ar      1 898        -0.0484
     23 C26         7.5520    1.6880   20.1400 C.ar      1 898        -0.0720
     24 C27         8.2310    2.1090   18.9730 C.ar      1 898        -0.0123
     25 C24         8.2590    3.4630   18.6070 C.ar      1 898        -0.0342
     26 C28         8.9350    1.1180   18.1000 C.3       1 898         0.0020
     27 C8         10.3900    1.5450   17.8440 C.3       1 898        -0.0136
     28 N3          8.1890    0.8820   16.8140 N.4       1 898         0.2429
     29 C9          6.8160    0.3800   17.0150 C.3       1 898        -0.0419
     30 C7          8.1850    1.9860   15.8160 C.3       1 898        -0.0419
     31 H1         11.7437    6.3998   28.2919 H         1 898         0.0442
     32 H2          9.1671    6.8840   27.8942 H         1 898         0.0457
     33 H3          7.6099    8.1869   26.1162 H         1 898         0.0624
     34 H4          8.9631    8.7059   23.4237 H         1 898         0.0767
     35 H5          5.3522    8.5416   21.9865 H         1 898         0.1705
     36 H6          6.1601    6.4045   23.8686 H         1 898         0.0759
     37 H7          3.9367    6.6878   21.8219 H         1 898         0.0333
     38 H8          3.9109    5.8993   23.4357 H         1 898         0.0333
     39 H9          4.1814    4.4855   21.0315 H         1 898         0.0583
     40 H10         4.8135    3.8913   22.6044 H         1 898         0.0583
     41 H11         6.3456    2.2929   21.8413 H         1 898         0.0474
     42 H12         7.5531    0.6383   20.4105 H         1 898         0.0488
     43 H13         8.7816    3.7900   17.7153 H         1 898         0.0507
     44 H14         8.9627    0.1615   18.6425 H         1 898         0.0984
     45 H15        10.8991    1.7071   18.8055 H         1 898         0.0303
     46 H16        10.4013    2.4779   17.2614 H         1 898         0.0303
     47 H17        10.9104    0.7554   17.2821 H         1 898         0.0303
     48 H18         8.6921    0.1305   16.3687 H         1 898         0.2042
     49 H19         6.3333    0.2311   16.0378 H         1 898         0.0778
     50 H20         6.2401    1.1116   17.6007 H         1 898         0.0778
     51 H21         6.8510   -0.5770   17.5562 H         1 898         0.0778
     52 H22         9.2116    2.3541   15.6723 H         1 898         0.0778
     53 H23         7.5489    2.8065   16.1794 H         1 898         0.0778
     54 H24         7.7917    1.6135   14.8587 H         1 898         0.0778
@<TRIPOS>BOND
     1    1    2 1  
     2    2    3 2  
     3    2    5 1  
     4    3    4 1  
     5    4    6 2  
     6    5    6 1  
     7    6    7 1  
     8    7    8 2  
     9    8    9 1  
    10    9   10 2  
    11    9   11 2  
    12    9   12 am 
    13   12   13 1  
    14   13   14 1  
    15   13   16 1  
    16   14   15 1  
    17   15   18 1  
    18   16   17 2  
    19   16   18 am 
    20   18   19 1  
    21   19   20 ar 
    22   19   22 ar 
    23   20   21 1  
    24   20   25 ar 
    25   22   23 ar 
    26   23   24 ar 
    27   24   25 ar 
    28   24   26 1  
    29   26   27 1  
    30   26   28 1  
    31   28   29 1  
    32   28   30 1  
    33    3   31 1  
    34    4   32 1  
    35    7   33 1  
    36    8   34 1  
    37   12   35 1  
    38   13   36 1  
    39   14   37 1  
    40   14   38 1  
    41   15   39 1  
    42   15   40 1  
    43   22   41 1  
    44   23   42 1  
    45   25   43 1  
    46   26   44 1  
    47   27   45 1  
    48   27   46 1  
    49   27   47 1  
    50   28   48 1  
    51   29   49 1  
    52   29   50 1  
    53   29   51 1  
    54   30   52 1  
    55   30   53 1  
    56   30   54 1  
@<TRIPOS>SUBSTRUCTURE
     1 898         1

