### 
### Created by X-TOOL on Mon Sep 10 21:13:04 2018
### 

@<TRIPOS>MOLECULE
3own_ligand
   97   100     1     0     0
SMALL
GAST_HUCK


@<TRIPOS>ATOM
      1 N1         -9.9390  -27.8780  -36.2410 N.am      1 3OX        -0.2785
      2 C2        -10.5560  -28.3910  -37.4620 C.3       1 3OX         0.0909
      3 C3         -9.6020  -29.1800  -38.3600 C.3       1 3OX         0.0825
      4 C4         -9.1400  -30.4540  -37.6140 C.3       1 3OX        -0.0046
      5 C5         -8.7020  -31.6130  -38.5130 C.3       1 3OX         0.0533
      6 C6         -9.9720  -32.3060  -38.9350 C.2       1 3OX         0.1794
      7 C7        -11.1640  -27.1520  -38.1740 C.3       1 3OX         0.0756
      8 O8         -8.4640  -28.4010  -38.7470 O.3       1 3OX        -0.3893
      9 C9         -7.7370  -32.5630  -37.7660 C.3       1 3OX        -0.0269
     10 C10        -6.4130  -31.8910  -37.3870 C.3       1 3OX        -0.0603
     11 C11        -7.4720  -33.8280  -38.5930 C.3       1 3OX        -0.0603
     12 O12       -10.7130  -32.7530  -38.0790 O.2       1 3OX        -0.3968
     13 O13       -12.0270  -26.4020  -37.3280 O.3       1 3OX        -0.3651
     14 C14       -11.4350  -33.0290  -40.8170 C.3       1 3OX         0.0332
     15 C15       -11.0680  -34.3030  -41.5620 C.3       1 3OX        -0.0265
     16 C16       -12.3720  -34.8650  -42.1450 C.3       1 3OX        -0.0608
     17 C17       -10.0210  -34.0770  -42.6560 C.3       1 3OX        -0.0608
     18 N18       -10.2460  -32.3990  -40.2310 N.am      1 3OX        -0.2865
     19 C19        -9.5310  -27.6950  -33.9010 C.ar      1 3OX         0.0397
     20 C20        -8.6900  -28.1970  -32.9140 C.ar      1 3OX        -0.0214
     21 C21        -8.2630  -27.3390  -31.8860 C.ar      1 3OX         0.0754
     22 C22        -8.6820  -26.0070  -31.8330 C.ar      1 3OX        -0.0214
     23 C23        -9.5710  -25.5250  -32.7840 C.ar      1 3OX         0.0400
     24 C24        -9.9880  -26.3800  -33.8010 C.ar      1 3OX        -0.0393
     25 C25       -10.1020  -28.4560  -35.0440 C.2       1 3OX         0.2024
     26 C26       -10.0520  -24.0990  -32.8060 C.2       1 3OX         0.2058
     27 N27        -7.3440  -27.8430  -30.9300 N.am      1 3OX        -0.1796
     28 C28        -7.8200  -28.9430  -30.0860 C.3       1 3OX         0.0445
     29 S29        -5.8700  -27.3680  -30.9420 S.o2      1 3OX         0.0593
     30 C30        -5.7790  -25.8370  -31.4160 C.3       1 3OX         0.0790
     31 O31        -9.3050  -23.1680  -32.5880 O.2       1 3OX        -0.3843
     32 O32       -10.7390  -29.4990  -34.8560 O.2       1 3OX        -0.3847
     33 O33        -5.1380  -28.1710  -31.9310 O.2       1 3OX        -0.1500
     34 O34        -5.2460  -27.5510  -29.6560 O.2       1 3OX        -0.1500
     35 N35       -11.3250  -23.9470  -33.0810 N.am      1 3OX        -0.2614
     36 C36       -12.1910  -22.8200  -33.3850 C.3       1 3OX         0.1068
     37 C37       -13.0360  -23.2420  -34.5250 C.ar      1 3OX        -0.0135
     38 C38       -13.0620  -24.3780  -36.6640 C.ar      1 3OX        -0.0239
     39 C39       -14.4630  -24.2550  -36.6680 C.ar      1 3OX        -0.0648
     40 C40       -15.1420  -23.6620  -35.5990 C.ar      1 3OX        -0.0747
     41 C41       -14.4230  -23.1700  -34.5060 C.ar      1 3OX        -0.0631
     42 C42       -12.3530  -23.8870  -35.5650 C.ar      1 3OX        -0.0528
     43 C43       -12.3770  -25.0820  -37.8130 C.3       1 3OX         0.0802
     44 C44       -12.9730  -22.3230  -32.2030 C.ar      1 3OX        -0.0069
     45 C45       -13.4270  -23.1850  -31.1930 C.ar      1 3OX        -0.0561
     46 C46       -14.1280  -22.6980  -30.0940 C.ar      1 3OX        -0.0681
     47 C47       -14.3770  -21.3240  -29.9940 C.ar      1 3OX        -0.0685
     48 C48       -13.9180  -20.4610  -30.9810 C.ar      1 3OX        -0.0681
     49 C49       -13.2200  -20.9510  -32.0810 C.ar      1 3OX        -0.0561
     50 H1         -9.3693  -27.0584  -36.3019 H         1 3OX         0.1850
     51 H2        -11.3721  -29.0725  -37.1802 H         1 3OX         0.0604
     52 H3        -10.1442  -29.4766  -39.2700 H         1 3OX         0.0618
     53 H4         -9.9751  -30.8045  -36.9897 H         1 3OX         0.0318
     54 H5         -8.2901  -30.1823  -36.9708 H         1 3OX         0.0318
     55 H6         -8.1856  -31.2198  -39.4011 H         1 3OX         0.0541
     56 H7        -11.7380  -27.4945  -39.0476 H         1 3OX         0.0586
     57 H8        -10.3435  -26.4995  -38.5071 H         1 3OX         0.0586
     58 H9         -8.7561  -27.6212  -39.2041 H         1 3OX         0.2099
     59 H10        -8.2325  -32.8670  -36.8321 H         1 3OX         0.0322
     60 H11        -5.7723  -32.6140  -36.8609 H         1 3OX         0.0234
     61 H12        -6.6128  -31.0319  -36.7297 H         1 3OX         0.0234
     62 H13        -5.9034  -31.5448  -38.2983 H         1 3OX         0.0234
     63 H14        -8.4296  -34.3000  -38.8581 H         1 3OX         0.0234
     64 H15        -6.8672  -34.5320  -38.0026 H         1 3OX         0.0234
     65 H16        -6.9293  -33.5588  -39.5112 H         1 3OX         0.0234
     66 H17       -12.1446  -33.2745  -40.0131 H         1 3OX         0.0522
     67 H18       -11.9055  -32.3250  -41.5191 H         1 3OX         0.0522
     68 H19       -10.6541  -35.0258  -40.8435 H         1 3OX         0.0315
     69 H20       -12.1574  -35.7923  -42.6964 H         1 3OX         0.0233
     70 H21       -12.8163  -34.1265  -42.8285 H         1 3OX         0.0233
     71 H22       -13.0767  -35.0790  -41.3280 H         1 3OX         0.0233
     72 H23        -9.1013  -33.6750  -42.2059 H         1 3OX         0.0233
     73 H24       -10.4110  -33.3611  -43.3945 H         1 3OX         0.0233
     74 H25        -9.7984  -35.0325  -43.1535 H         1 3OX         0.0233
     75 H26        -9.5817  -32.0038  -40.8655 H         1 3OX         0.1851
     76 H27        -8.3693  -29.2322  -32.9370 H         1 3OX         0.0566
     77 H28        -8.3139  -25.3520  -31.0516 H         1 3OX         0.0566
     78 H29       -10.6909  -26.0120  -34.5396 H         1 3OX         0.0576
     79 H30        -8.8970  -29.0930  -30.2521 H         1 3OX         0.0517
     80 H31        -7.6429  -28.6970  -29.0286 H         1 3OX         0.0517
     81 H32        -7.2774  -29.8644  -30.3440 H         1 3OX         0.0517
     82 H33        -4.7269  -25.5160  -31.4189 H         1 3OX         0.0487
     83 H34        -6.3535  -25.2040  -30.7237 H         1 3OX         0.0487
     84 H35        -6.1941  -25.7418  -32.4302 H         1 3OX         0.0487
     85 H36       -11.8193  -24.8163  -33.0818 H         1 3OX         0.1901
     86 H37       -11.5593  -21.9838  -33.7191 H         1 3OX         0.0878
     87 H38       -15.0271  -24.6269  -37.5157 H         1 3OX         0.0502
     88 H39       -16.2230  -23.5841  -35.6179 H         1 3OX         0.0582
     89 H40       -14.9400  -22.7388  -33.6564 H         1 3OX         0.0504
     90 H41       -11.2765  -24.0047  -35.5167 H         1 3OX         0.0499
     91 H42       -13.0585  -25.1601  -38.6729 H         1 3OX         0.0723
     92 H43       -11.4717  -24.5329  -38.1112 H         1 3OX         0.0723
     93 H44       -13.2283  -24.2478  -31.2702 H         1 3OX         0.0561
     94 H45       -14.4776  -23.3755  -29.3234 H         1 3OX         0.0600
     95 H46       -14.9281  -20.9335  -29.1462 H         1 3OX         0.0561
     96 H47       -14.1050  -19.3968  -30.8938 H         1 3OX         0.0600
     97 H48       -12.8668  -20.2681  -32.8452 H         1 3OX         0.0561
@<TRIPOS>BOND
     1    1    2 1  
     2   25    1 am 
     3    2    3 1  
     4    2    7 1  
     5    3    4 1  
     6    3    8 1  
     7    4    5 1  
     8    5    6 1  
     9    5    9 1  
    10    6   12 2  
    11    6   18 am 
    12    7   13 1  
    13    9   10 1  
    14    9   11 1  
    15   13   43 1  
    16   14   15 1  
    17   18   14 1  
    18   15   16 1  
    19   15   17 1  
    20   19   20 ar 
    21   24   19 ar 
    22   19   25 1  
    23   21   20 ar 
    24   22   21 ar 
    25   21   27 1  
    26   23   22 ar 
    27   23   24 ar 
    28   26   23 1  
    29   25   32 2  
    30   26   31 2  
    31   35   26 am 
    32   27   28 1  
    33   27   29 am 
    34   29   30 1  
    35   29   33 2  
    36   29   34 2  
    37   36   35 1  
    38   37   36 1  
    39   36   44 1  
    40   37   41 ar 
    41   42   37 ar 
    42   38   39 ar 
    43   38   42 ar 
    44   38   43 1  
    45   39   40 ar 
    46   40   41 ar 
    47   44   45 ar 
    48   44   49 ar 
    49   45   46 ar 
    50   46   47 ar 
    51   47   48 ar 
    52   48   49 ar 
    53    1   50 1  
    54    2   51 1  
    55    3   52 1  
    56    4   53 1  
    57    4   54 1  
    58    5   55 1  
    59    7   56 1  
    60    7   57 1  
    61    8   58 1  
    62    9   59 1  
    63   10   60 1  
    64   10   61 1  
    65   10   62 1  
    66   11   63 1  
    67   11   64 1  
    68   11   65 1  
    69   14   66 1  
    70   14   67 1  
    71   15   68 1  
    72   16   69 1  
    73   16   70 1  
    74   16   71 1  
    75   17   72 1  
    76   17   73 1  
    77   17   74 1  
    78   18   75 1  
    79   20   76 1  
    80   22   77 1  
    81   24   78 1  
    82   28   79 1  
    83   28   80 1  
    84   28   81 1  
    85   30   82 1  
    86   30   83 1  
    87   30   84 1  
    88   35   85 1  
    89   36   86 1  
    90   39   87 1  
    91   40   88 1  
    92   41   89 1  
    93   42   90 1  
    94   43   91 1  
    95   43   92 1  
    96   45   93 1  
    97   46   94 1  
    98   47   95 1  
    99   48   96 1  
   100   49   97 1  
@<TRIPOS>SUBSTRUCTURE
     1 3OX         1

