3own_ligand
  -I-interpret- 

 97100  0  0  0  0  0  0  0  0999 V2000
   -9.9390  -27.8780  -36.2410 N   0  0  0  0  0
  -10.5560  -28.3910  -37.4620 C   0  0  0  0  0
   -9.6020  -29.1800  -38.3600 C   0  0  0  0  0
   -9.1400  -30.4540  -37.6140 C   0  0  0  0  0
   -8.7020  -31.6130  -38.5130 C   0  0  0  0  0
   -9.9720  -32.3060  -38.9350 C   0  0  0  0  0
  -11.1640  -27.1520  -38.1740 C   0  0  0  0  0
   -8.4640  -28.4010  -38.7470 O   0  0  0  0  0
   -7.7370  -32.5630  -37.7660 C   0  0  0  0  0
   -6.4130  -31.8910  -37.3870 C   0  0  0  0  0
   -7.4720  -33.8280  -38.5930 C   0  0  0  0  0
  -10.7130  -32.7530  -38.0790 O   0  0  0  0  0
  -12.0270  -26.4020  -37.3280 O   0  0  0  0  0
  -11.4350  -33.0290  -40.8170 C   0  0  0  0  0
  -11.0680  -34.3030  -41.5620 C   0  0  0  0  0
  -12.3720  -34.8650  -42.1450 C   0  0  0  0  0
  -10.0210  -34.0770  -42.6560 C   0  0  0  0  0
  -10.2460  -32.3990  -40.2310 N   0  0  0  0  0
   -9.5310  -27.6950  -33.9010 C   0  0  0  0  0
   -8.6900  -28.1970  -32.9140 C   0  0  0  0  0
   -8.2630  -27.3390  -31.8860 C   0  0  0  0  0
   -8.6820  -26.0070  -31.8330 C   0  0  0  0  0
   -9.5710  -25.5250  -32.7840 C   0  0  0  0  0
   -9.9880  -26.3800  -33.8010 C   0  0  0  0  0
  -10.1020  -28.4560  -35.0440 C   0  0  0  0  0
  -10.0520  -24.0990  -32.8060 C   0  0  0  0  0
   -7.3440  -27.8430  -30.9300 N   0  0  0  0  0
   -7.8200  -28.9430  -30.0860 C   0  0  0  0  0
   -5.8700  -27.3680  -30.9420 S   0  0  0  0  0
   -5.7790  -25.8370  -31.4160 C   0  0  0  0  0
   -9.3050  -23.1680  -32.5880 O   0  0  0  0  0
  -10.7390  -29.4990  -34.8560 O   0  0  0  0  0
   -5.1380  -28.1710  -31.9310 O   0  0  0  0  0
   -5.2460  -27.5510  -29.6560 O   0  0  0  0  0
  -11.3250  -23.9470  -33.0810 N   0  0  0  0  0
  -12.1910  -22.8200  -33.3850 C   0  0  0  0  0
  -13.0360  -23.2420  -34.5250 C   0  0  0  0  0
  -13.0620  -24.3780  -36.6640 C   0  0  0  0  0
  -14.4630  -24.2550  -36.6680 C   0  0  0  0  0
  -15.1420  -23.6620  -35.5990 C   0  0  0  0  0
  -14.4230  -23.1700  -34.5060 C   0  0  0  0  0
  -12.3530  -23.8870  -35.5650 C   0  0  0  0  0
  -12.3770  -25.0820  -37.8130 C   0  0  0  0  0
  -12.9730  -22.3230  -32.2030 C   0  0  0  0  0
  -13.4270  -23.1850  -31.1930 C   0  0  0  0  0
  -14.1280  -22.6980  -30.0940 C   0  0  0  0  0
  -14.3770  -21.3240  -29.9940 C   0  0  0  0  0
  -13.9180  -20.4610  -30.9810 C   0  0  0  0  0
  -13.2200  -20.9510  -32.0810 C   0  0  0  0  0
   -9.3579  -27.0420  -36.3031 H   0  0  0  0  0
  -11.3195  -29.1294  -37.2171 H   0  0  0  0  0
  -10.1369  -29.4492  -39.2708 H   0  0  0  0  0
   -9.9965  -30.8089  -37.0408 H   0  0  0  0  0
   -8.2699  -30.1715  -37.0214 H   0  0  0  0  0
   -8.1461  -31.2640  -39.3832 H   0  0  0  0  0
  -11.7510  -27.5071  -39.0210 H   0  0  0  0  0
  -10.3424  -26.5021  -38.4750 H   0  0  0  0  0
   -8.7592  -27.6129  -39.2089 H   0  0  0  0  0
   -8.2330  -32.8375  -36.8350 H   0  0  0  0  0
   -5.8112  -32.5832  -36.7981 H   0  0  0  0  0
   -5.8728  -31.6184  -38.2936 H   0  0  0  0  0
   -6.6166  -30.9950  -36.8006 H   0  0  0  0  0
   -6.9342  -33.5600  -39.5024 H   0  0  0  0  0
   -6.8727  -34.5247  -38.0070 H   0  0  0  0  0
   -8.4215  -34.2948  -38.8550 H   0  0  0  0  0
  -12.1277  -33.2815  -40.0141 H   0  0  0  0  0
  -11.8884  -32.3313  -41.5211 H   0  0  0  0  0
  -10.6041  -35.0088  -40.8730 H   0  0  0  0  0
  -13.0694  -35.0766  -41.3345 H   0  0  0  0  0
  -12.8113  -34.1323  -42.8220 H   0  0  0  0  0
  -12.1581  -35.7838  -42.6911 H   0  0  0  0  0
  -10.4078  -33.3660  -43.3860 H   0  0  0  0  0
   -9.1096  -33.6806  -42.2085 H   0  0  0  0  0
   -9.8028  -35.0241  -43.1496 H   0  0  0  0  0
   -9.5684  -31.9959  -40.8782 H   0  0  0  0  0
   -8.3675  -29.2379  -32.9372 H   0  0  0  0  0
   -8.3119  -25.3484  -31.0473 H   0  0  0  0  0
  -10.6948  -26.0100  -34.5437 H   0  0  0  0  0
   -8.6913  -28.6140  -29.5197 H   0  0  0  0  0
   -8.0928  -29.7902  -30.7152 H   0  0  0  0  0
   -7.0286  -29.2398  -29.3977 H   0  0  0  0  0
   -4.7331  -25.5332  -31.4602 H   0  0  0  0  0
   -6.2300  -25.7362  -32.4032 H   0  0  0  0  0
   -6.3124  -25.2057  -30.7053 H   0  0  0  0  0
  -11.8292  -24.8337  -33.0818 H   0  0  0  0  0
  -11.5977  -21.9466  -33.6557 H   0  0  0  0  0
  -15.0302  -24.6289  -37.5204 H   0  0  0  0  0
  -16.2290  -23.5837  -35.6180 H   0  0  0  0  0
  -14.9429  -22.7364  -33.6517 H   0  0  0  0  0
  -11.2705  -24.0053  -35.5165 H   0  0  0  0  0
  -13.0317  -25.1437  -38.6823 H   0  0  0  0  0
  -11.4916  -24.5351  -38.1370 H   0  0  0  0  0
  -13.2272  -24.2537  -31.2706 H   0  0  0  0  0
  -14.4796  -23.3792  -29.3191 H   0  0  0  0  0
  -14.9312  -20.9313  -29.1415 H   0  0  0  0  0
  -14.1061  -19.3909  -30.8933 H   0  0  0  0  0
  -12.8649  -20.2643  -32.8494 H   0  0  0  0  0
  1  2  1  0  0  0
 25  1  1  0  0  0
  2  3  1  0  0  0
  2  7  1  0  0  0
  3  4  1  0  0  0
  3  8  1  0  0  0
  4  5  1  0  0  0
  5  6  1  0  0  0
  5  9  1  0  0  0
  6 12  2  0  0  0
  6 18  1  0  0  0
  7 13  1  0  0  0
  9 10  1  0  0  0
  9 11  1  0  0  0
 13 43  1  0  0  0
 14 15  1  0  0  0
 18 14  1  0  0  0
 15 16  1  0  0  0
 15 17  1  0  0  0
 19 20  4  0  0  0
 24 19  4  0  0  0
 19 25  1  0  0  0
 21 20  4  0  0  0
 22 21  4  0  0  0
 21 27  1  0  0  0
 23 22  4  0  0  0
 23 24  4  0  0  0
 26 23  1  0  0  0
 25 32  2  0  0  0
 26 31  2  0  0  0
 35 26  1  0  0  0
 27 28  1  0  0  0
 27 29  1  0  0  0
 29 30  1  0  0  0
 29 33  2  0  0  0
 29 34  2  0  0  0
 36 35  1  0  0  0
 37 36  1  0  0  0
 36 44  1  0  0  0
 37 41  4  0  0  0
 42 37  4  0  0  0
 38 39  4  0  0  0
 38 42  4  0  0  0
 38 43  1  0  0  0
 39 40  4  0  0  0
 40 41  4  0  0  0
 44 45  4  0  0  0
 44 49  4  0  0  0
 45 46  4  0  0  0
 46 47  4  0  0  0
 47 48  4  0  0  0
 48 49  4  0  0  0
  1 50  1  0  0  0
  2 51  1  0  0  0
  3 52  1  0  0  0
  4 53  1  0  0  0
  4 54  1  0  0  0
  5 55  1  0  0  0
  7 56  1  0  0  0
  7 57  1  0  0  0
  8 58  1  0  0  0
  9 59  1  0  0  0
 10 60  1  0  0  0
 10 61  1  0  0  0
 10 62  1  0  0  0
 11 63  1  0  0  0
 11 64  1  0  0  0
 11 65  1  0  0  0
 14 66  1  0  0  0
 14 67  1  0  0  0
 15 68  1  0  0  0
 16 69  1  0  0  0
 16 70  1  0  0  0
 16 71  1  0  0  0
 17 72  1  0  0  0
 17 73  1  0  0  0
 17 74  1  0  0  0
 18 75  1  0  0  0
 20 76  1  0  0  0
 22 77  1  0  0  0
 24 78  1  0  0  0
 28 79  1  0  0  0
 28 80  1  0  0  0
 28 81  1  0  0  0
 30 82  1  0  0  0
 30 83  1  0  0  0
 30 84  1  0  0  0
 35 85  1  0  0  0
 36 86  1  0  0  0
 39 87  1  0  0  0
 40 88  1  0  0  0
 41 89  1  0  0  0
 42 90  1  0  0  0
 43 91  1  0  0  0
 43 92  1  0  0  0
 45 93  1  0  0  0
 46 94  1  0  0  0
 47 95  1  0  0  0
 48 96  1  0  0  0
 49 97  1  0  0  0
M  END
$$$$
