### 
### Created by X-TOOL on Mon Sep 10 21:13:31 2018
### 

@<TRIPOS>MOLECULE
5kad_ligand
   27    28     1     0     0
SMALL
GAST_HUCK


@<TRIPOS>ATOM
      1 N1         59.6610   30.3310   10.7220 N.4       1 OTA         0.2365
      2 C2         59.8340   28.9090   10.8540 C.3       1 OTA        -0.0061
      3 C3         59.5640   28.3320   12.2360 C.2       1 OTA         0.0333
      4 C4         59.5890   29.2560   13.3230 C.2       1 OTA        -0.0668
      5 C5         59.8550   30.7020   13.1350 C.3       1 OTA        -0.0017
      6 C6         60.2280   31.1600   11.7820 C.3       1 OTA        -0.0288
      7 S13        59.2460   26.8940   12.7610 S.3       1 OTA        -0.0182
      8 C14        59.0860   27.0900   14.2940 C.2       1 OTA         0.1340
      9 C15        59.2800   28.4410   14.6280 C.2       1 OTA         0.0008
     10 C16        59.2080   28.9860   16.0800 C.2       1 OTA         0.0260
     11 O17        58.7770   28.2060   16.9770 O.co2     1 OTA        -0.5769
     12 O18        59.6030   30.1980   16.3550 O.co2     1 OTA        -0.5769
     13 N19        58.8140   26.1770   15.3390 N.am      1 OTA        -0.2107
     14 C20        58.6890   24.7920   15.1830 C.2       1 OTA         0.2766
     15 C21        58.4150   24.0490   16.4670 C.2       1 OTA         0.1508
     16 O22        57.6760   24.6340   17.3400 O.co2     1 OTA        -0.5455
     17 O23        58.9170   22.9230   16.6720 O.co2     1 OTA        -0.5455
     18 O24        58.7910   24.2230   14.0760 O.2       1 OTA        -0.3509
     19 H1         58.6709   30.5165   10.6854 H         1 OTA         0.2024
     20 H2         60.0878   30.6116    9.8530 H         1 OTA         0.2024
     21 H3         60.8737   28.6697   10.5862 H         1 OTA         0.0921
     22 H4         59.1506   28.4191   10.1449 H         1 OTA         0.0921
     23 H5         60.6768   30.9759   13.8129 H         1 OTA         0.0400
     24 H6         58.9434   31.2445   13.4259 H         1 OTA         0.0400
     25 H7         59.8693   32.1915   11.6500 H         1 OTA         0.0829
     26 H8         61.3243   31.1390   11.6948 H         1 OTA         0.0829
     27 H9         58.7024   26.5497   16.2602 H         1 OTA         0.2352
@<TRIPOS>BOND
     1    1    2 1  
     2    1    6 1  
     3    2    3 1  
     4    3    4 2  
     5    3    7 1  
     6    4    5 1  
     7    4    9 1  
     8    5    6 1  
     9    7    8 1  
    10    8    9 2  
    11    8   13 1  
    12    9   10 1  
    13   10   11 ar 
    14   10   12 ar 
    15   13   14 am 
    16   14   15 1  
    17   14   18 2  
    18   15   16 ar 
    19   15   17 ar 
    20    1   19 1  
    21    1   20 1  
    22    2   21 1  
    23    2   22 1  
    24    5   23 1  
    25    5   24 1  
    26    6   25 1  
    27    6   26 1  
    28   13   27 1  
@<TRIPOS>SUBSTRUCTURE
     1 OTA         1

