5kad_ligand
  -I-interpret- 

 29 30  0  0  0  0  0  0  0  0999 V2000
   59.6610   30.3310   10.7220 N   0  3  0  0  0
   59.8340   28.9090   10.8540 C   0  0  0  0  0
   59.5640   28.3320   12.2360 C   0  0  0  0  0
   59.5890   29.2560   13.3230 C   0  0  0  0  0
   59.8550   30.7020   13.1350 C   0  0  0  0  0
   60.2280   31.1600   11.7820 C   0  0  0  0  0
   59.2460   26.8940   12.7610 S   0  0  0  0  0
   59.0860   27.0900   14.2940 C   0  0  0  0  0
   59.2800   28.4410   14.6280 C   0  0  0  0  0
   59.2080   28.9860   16.0800 C   0  0  0  0  0
   58.7770   28.2060   16.9770 O   0  0  0  0  0
   59.6030   30.1980   16.3550 O   0  0  0  0  0
   58.8140   26.1770   15.3390 N   0  0  0  0  0
   58.6890   24.7920   15.1830 C   0  0  0  0  0
   58.4150   24.0490   16.4670 C   0  0  0  0  0
   57.6760   24.6340   17.3400 O   0  0  0  0  0
   58.9170   22.9230   16.6720 O   0  0  0  0  0
   58.7910   24.2230   14.0760 O   0  0  0  0  0
   58.6546   30.4954   10.7438 H   0  0  0  0  0
   60.1487   30.5958    9.8662 H   0  0  0  0  0
   60.8825   28.7058   10.6360 H   0  0  0  0  0
   59.1100   28.4480   10.1821 H   0  0  0  0  0
   60.7151   30.9252   13.7663 H   0  0  0  0  0
   58.9151   31.2040   13.3644 H   0  0  0  0  0
   59.8410   32.1711   11.6554 H   0  0  0  0  0
   61.3136   31.1059   11.7008 H   0  0  0  0  0
   59.8927   30.6298   15.5480 H   0  0  0  0  0
   58.7002   26.5572   16.2786 H   0  0  0  0  0
   57.3891   25.4836   16.9971 H   0  0  0  0  0
  1  2  1  0  0  0
  1  6  1  0  0  0
  2  3  1  0  0  0
  3  4  4  0  0  0
  3  7  4  0  0  0
  4  5  1  0  0  0
  4  9  4  0  0  0
  5  6  1  0  0  0
  7  8  4  0  0  0
  8  9  4  0  0  0
  8 13  1  0  0  0
  9 10  1  0  0  0
 10 11  2  0  0  0
 10 12  1  0  0  0
 13 14  1  0  0  0
 14 15  1  0  0  0
 14 18  2  0  0  0
 15 16  1  0  0  0
 15 17  2  0  0  0
  1 19  1  0  0  0
  1 20  1  0  0  0
  2 21  1  0  0  0
  2 22  1  0  0  0
  5 23  1  0  0  0
  5 24  1  0  0  0
  6 25  1  0  0  0
  6 26  1  0  0  0
 12 27  1  0  0  0
 13 28  1  0  0  0
 16 29  1  0  0  0
M  END
$$$$
