4lov_ligand
  -I-interpret- 

 43 43  0  0  0  0  0  0  0  0999 V2000
    8.6150   -6.9900  -33.6660 O   0  0  0  0  0
    8.7840   -7.5860  -34.9610 C   0  0  0  0  0
   10.2670   -7.4120  -35.4070 C   0  0  0  0  0
   10.7760   -6.8110  -41.8900 C   0  0  0  0  0
   10.4490   -5.9890  -35.5410 O   0  0  0  0  0
   11.2840   -8.0580  -34.4050 C   0  0  0  0  0
   11.1130   -9.4450  -34.4480 O   0  0  0  0  0
   12.6970   -7.6680  -34.8770 C   0  0  0  0  0
   13.6700   -8.1030  -33.9580 O   0  0  0  0  0
   12.8690   -6.0950  -34.9830 C   0  0  0  0  0
   12.7070   -5.4770  -33.7200 O   0  0  0  0  0
   11.7790   -5.5210  -35.9430 C   0  0  0  0  0
   11.9270   -5.9530  -37.2750 O   0  0  0  0  0
   11.0660   -5.4480  -38.3320 C   0  0  0  0  0
   11.3970   -6.3840  -39.5210 C   0  0  0  0  0
   10.5440   -6.1630  -40.7280 C   0  0  0  0  0
    9.1460   -7.0160  -45.4010 C   0  0  0  0  0
   10.1420   -7.3880  -44.2780 C   0  0  0  0  0
    9.9210   -6.4950  -43.0940 C   0  0  0  0  0
    7.7032   -7.0932  -33.3840 H   0  0  0  0  0
    8.1237   -7.1000  -35.6793 H   0  0  0  0  0
    8.5353   -8.6462  -34.9140 H   0  0  0  0  0
   10.4653   -7.9335  -36.3434 H   0  0  0  0  0
   11.5711   -7.5534  -41.9580 H   0  0  0  0  0
   11.1307   -7.7158  -33.3815 H   0  0  0  0  0
   10.2275   -9.6665  -34.1505 H   0  0  0  0  0
   12.8256   -8.1373  -35.8524 H   0  0  0  0  0
   13.6091   -9.0556  -33.8561 H   0  0  0  0  0
   13.8718   -5.8906  -35.3582 H   0  0  0  0  0
   12.8159   -4.5278  -33.8132 H   0  0  0  0  0
   11.8924   -4.4387  -35.8808 H   0  0  0  0  0
   11.2435   -4.3965  -38.5577 H   0  0  0  0  0
   10.0100   -5.4622  -38.0621 H   0  0  0  0  0
   11.2216   -7.4060  -39.1851 H   0  0  0  0  0
   12.4275   -6.1818  -39.8132 H   0  0  0  0  0
    9.7128   -5.4604  -40.6690 H   0  0  0  0  0
    8.1263   -7.1417  -45.0369 H   0  0  0  0  0
    9.3028   -5.9781  -45.6949 H   0  0  0  0  0
    9.3093   -7.6668  -46.2600 H   0  0  0  0  0
   11.1617   -7.2617  -44.6417 H   0  0  0  0  0
    9.9849   -8.4256  -43.9835 H   0  0  0  0  0
   10.1807   -5.4842  -43.4086 H   0  0  0  0  0
    8.8835   -6.6285  -42.7877 H   0  0  0  0  0
  2  1  1  0  0  0
  3  2  1  0  0  0
  5  3  1  0  0  0
  3  6  1  0  0  0
  4 16  2  0  0  0
 19  4  1  0  0  0
 12  5  1  0  0  0
  6  7  1  0  0  0
  8  6  1  0  0  0
  8  9  1  0  0  0
 10  8  1  0  0  0
 10 11  1  0  0  0
 12 10  1  0  0  0
 13 12  1  0  0  0
 14 13  1  0  0  0
 15 14  1  0  0  0
 16 15  1  0  0  0
 18 17  1  0  0  0
 18 19  1  0  0  0
  1 20  1  0  0  0
  2 21  1  0  0  0
  2 22  1  0  0  0
  3 23  1  0  0  0
  4 24  1  0  0  0
  6 25  1  0  0  0
  7 26  1  0  0  0
  8 27  1  0  0  0
  9 28  1  0  0  0
 10 29  1  0  0  0
 11 30  1  0  0  0
 12 31  1  0  0  0
 14 32  1  0  0  0
 14 33  1  0  0  0
 15 34  1  0  0  0
 15 35  1  0  0  0
 16 36  1  0  0  0
 17 37  1  0  0  0
 17 38  1  0  0  0
 17 39  1  0  0  0
 18 40  1  0  0  0
 18 41  1  0  0  0
 19 42  1  0  0  0
 19 43  1  0  0  0
M  END
$$$$
