### 
### Created by X-TOOL on Mon Sep 10 21:13:17 2018
### 

@<TRIPOS>MOLECULE
4lov_ligand
   43    43     1     0     0
SMALL
GAST_HUCK


@<TRIPOS>ATOM
      1 O6          8.6150   -6.9900  -33.6660 O.3       1 KGM        -0.3924
      2 C6          8.7840   -7.5860  -34.9610 C.3       1 KGM         0.0730
      3 C5         10.2670   -7.4120  -35.4070 C.3       1 KGM         0.1130
      4 C10        10.7760   -6.8110  -41.8900 C.2       1 KGM        -0.0986
      5 O5         10.4490   -5.9890  -35.5410 O.3       1 KGM        -0.3405
      6 C4         11.2840   -8.0580  -34.4050 C.3       1 KGM         0.1119
      7 O4         11.1130   -9.4450  -34.4480 O.3       1 KGM        -0.3865
      8 C3         12.6970   -7.6680  -34.8770 C.3       1 KGM         0.1141
      9 O3         13.6700   -8.1030  -33.9580 O.3       1 KGM        -0.3864
     10 C2         12.8690   -6.0950  -34.9830 C.3       1 KGM         0.1341
     11 O2         12.7070   -5.4770  -33.7200 O.3       1 KGM        -0.3841
     12 C1         11.7790   -5.5210  -35.9430 C.3       1 KGM         0.1881
     13 O1         11.9270   -5.9530  -37.2750 O.3       1 KGM        -0.3469
     14 C7         11.0660   -5.4480  -38.3320 C.3       1 KGM         0.0571
     15 C8         11.3970   -6.3840  -39.5210 C.3       1 KGM        -0.0128
     16 C9         10.5440   -6.1630  -40.7280 C.2       1 KGM        -0.0965
     17 C13         9.1460   -7.0160  -45.4010 C.3       1 KGM        -0.0637
     18 C12        10.1420   -7.3880  -44.2780 C.3       1 KGM        -0.0493
     19 C11         9.9210   -6.4950  -43.0940 C.3       1 KGM        -0.0367
     20 H           7.7127   -7.0921  -33.3870 H         1 KGM         0.2095
     21 H           8.1202   -7.0907  -35.6849 H         1 KGM         0.0584
     22 H           8.5370   -8.6567  -34.9098 H         1 KGM         0.0584
     23 H          10.4104   -7.8913  -36.3866 H         1 KGM         0.0647
     24 H          11.5704   -7.5528  -41.9579 H         1 KGM         0.0450
     25 H          11.1106   -7.6894  -33.3832 H         1 KGM         0.0647
     26 H          10.2227   -9.6611  -34.1969 H         1 KGM         0.2100
     27 H          12.8798   -8.1272  -35.8597 H         1 KGM         0.0648
     28 H          14.5320   -7.8522  -34.2687 H         1 KGM         0.2100
     29 H          13.8704   -5.8666  -35.3766 H         1 KGM         0.0671
     30 H          13.3597   -5.8142  -33.1177 H         1 KGM         0.2101
     31 H          11.8228   -4.4226  -35.9046 H         1 KGM         0.0937
     32 H          11.3060   -4.4018  -38.5727 H         1 KGM         0.0581
     33 H          10.0056   -5.5254  -38.0502 H         1 KGM         0.0581
     34 H          11.2631   -7.4242  -39.1893 H         1 KGM         0.0410
     35 H          12.4471   -6.2222  -39.8060 H         1 KGM         0.0410
     36 H           9.7135   -5.4610  -40.6690 H         1 KGM         0.0451
     37 H           9.3098   -7.6722  -46.2685 H         1 KGM         0.0231
     38 H           9.3033   -5.9688  -45.6986 H         1 KGM         0.0231
     39 H           8.1165   -7.1425  -45.0348 H         1 KGM         0.0231
     40 H          11.1713   -7.2616  -44.6448 H         1 KGM         0.0282
     41 H           9.9845   -8.4354  -43.9810 H         1 KGM         0.0282
     42 H          10.1337   -5.4606  -43.4020 H         1 KGM         0.0388
     43 H           8.8657   -6.5790  -42.7951 H         1 KGM         0.0388
@<TRIPOS>BOND
     1    2    1 1  
     2    3    2 1  
     3    5    3 1  
     4    3    6 1  
     5    4   16 2  
     6   19    4 1  
     7   12    5 1  
     8    6    7 1  
     9    8    6 1  
    10    8    9 1  
    11   10    8 1  
    12   10   11 1  
    13   12   10 1  
    14   13   12 1  
    15   14   13 1  
    16   15   14 1  
    17   16   15 1  
    18   18   17 1  
    19   18   19 1  
    20    1   20 1  
    21    2   21 1  
    22    2   22 1  
    23    3   23 1  
    24    4   24 1  
    25    6   25 1  
    26    7   26 1  
    27    8   27 1  
    28    9   28 1  
    29   10   29 1  
    30   11   30 1  
    31   12   31 1  
    32   14   32 1  
    33   14   33 1  
    34   15   34 1  
    35   15   35 1  
    36   16   36 1  
    37   17   37 1  
    38   17   38 1  
    39   17   39 1  
    40   18   40 1  
    41   18   41 1  
    42   19   42 1  
    43   19   43 1  
@<TRIPOS>SUBSTRUCTURE
     1 KGM         1

