### 
### Created by X-TOOL on Mon Aug  2 16:13:24 2021
### 

@<TRIPOS>MOLECULE
6fh3_ligand
   30    29     1     0     0
SMALL
GAST_HUCK


@<TRIPOS>ATOM
      1 P          96.2590   14.8550  414.9540 P.3       1 RPI         0.1447
      2 N          96.0100   18.9040  408.8270 N.4       1 RPI         0.2327
      3 CA         95.0910   19.9350  409.1970 C.3       1 RPI         0.0285
      4 CB         94.4480   19.6680  410.5450 C.3       1 RPI         0.0064
      5 CG         93.5920   18.4180  410.5790 C.3       1 RPI        -0.0047
      6 CD         93.3900   17.9640  412.0050 C.3       1 RPI         0.0885
      7 NE         94.5980   17.3440  412.4250 N.pl3     1 RPI        -0.2456
      8 CZ         94.6470   16.4530  413.5070 C.cat     1 RPI         0.3140
      9 NH1        93.5690   16.1280  414.2000 N.pl3     1 RPI        -0.2581
     10 NH2        95.9360   15.9630  413.7950 N.am      1 RPI        -0.2312
     11 O1P        95.2160   14.8840  416.0640 O.co2     1 RPI        -0.5496
     12 O2P        96.1680   13.5390  414.2320 O.co2     1 RPI        -0.5496
     13 O3P        97.6070   15.1270  415.5570 O.co2     1 RPI        -0.5496
     14 C          95.8070   21.2560  409.3280 C.2       1 RPI         0.0844
     15 O          96.9750   21.4190  408.8690 O.co2     1 RPI        -0.5643
     16 OXT        95.2150   22.1880  409.9350 O.co2     1 RPI        -0.5643
     17 H1         95.5171   18.0287  408.7435 H         1 RPI         0.2010
     18 H2         96.7244   18.8213  409.5333 H         1 RPI         0.2010
     19 H3         96.4363   19.1351  407.9433 H         1 RPI         0.2010
     20 H4         94.3111   20.0069  408.4246 H         1 RPI         0.1024
     21 H5         93.8142   20.5291  410.8033 H         1 RPI         0.0340
     22 H6         95.2459   19.5620  411.2947 H         1 RPI         0.0340
     23 H7         94.0917   17.6197  410.0107 H         1 RPI         0.0311
     24 H8         92.6140   18.6347  410.1245 H         1 RPI         0.0311
     25 H9         92.5595   17.2446  412.0572 H         1 RPI         0.0797
     26 H10        93.1672   18.8285  412.6476 H         1 RPI         0.0797
     27 H11        95.4683   17.5566  411.9167 H         1 RPI         0.3219
     28 H12        93.6429   15.4699  414.9889 H         1 RPI         0.3194
     29 H13        92.6552   16.5329  413.9510 H         1 RPI         0.3194
     30 H14        96.7019   16.3148  413.2568 H         1 RPI         0.1619
@<TRIPOS>BOND
     1   10    1 am 
     2    1   11 ar 
     3    1   12 ar 
     4    1   13 ar 
     5    3    2 1  
     6    4    3 1  
     7    3   14 1  
     8    5    4 1  
     9    6    5 1  
    10    7    6 1  
    11    8    7 ar 
    12    8    9 ar 
    13    8   10 ar 
    14   14   15 ar 
    15   14   16 ar 
    16    2   17 1  
    17    2   18 1  
    18    2   19 1  
    19    3   20 1  
    20    4   21 1  
    21    4   22 1  
    22    5   23 1  
    23    5   24 1  
    24    6   25 1  
    25    6   26 1  
    26    7   27 1  
    27    9   28 1  
    28    9   29 1  
    29   10   30 1  
@<TRIPOS>SUBSTRUCTURE
     1 RPI         1

