6fh3_ligand
  -I-interpret- 

 31 30  0  0  0  0  0  0  0  0999 V2000
   96.2590   14.8550  414.9540 P   0  0  0  0  0
   96.0100   18.9040  408.8270 N   0  3  0  0  0
   95.0910   19.9350  409.1970 C   0  0  0  0  0
   94.4480   19.6680  410.5450 C   0  0  0  0  0
   93.5920   18.4180  410.5790 C   0  0  0  0  0
   93.3900   17.9640  412.0050 C   0  0  0  0  0
   94.5980   17.3440  412.4250 N   0  0  0  0  0
   94.6470   16.4530  413.5070 C   0  0  0  0  0
   93.5690   16.1280  414.2000 N   0  0  0  0  0
   95.9360   15.9630  413.7950 N   0  0  0  0  0
   95.2160   14.8840  416.0640 O   0  0  0  0  0
   96.1680   13.5390  414.2320 O   0  0  0  0  0
   97.6070   15.1270  415.5570 O   0  0  0  0  0
   95.8070   21.2560  409.3280 C   0  0  0  0  0
   96.9750   21.4190  408.8690 O   0  0  0  0  0
   95.2150   22.1880  409.9350 O   0  0  0  0  0
   95.5102   18.0188  408.7428 H   0  0  0  0  0
   96.4407   19.1390  407.9328 H   0  0  0  0  0
   96.7324   18.8213  409.5424 H   0  0  0  0  0
   94.3331   19.9582  408.4140 H   0  0  0  0  0
   93.7968   20.5134  410.7671 H   0  0  0  0  0
   95.2529   19.5299  411.2669 H   0  0  0  0  0
   94.0923   17.6273  410.0199 H   0  0  0  0  0
   92.6218   18.6373  410.1332 H   0  0  0  0  0
   92.5570   17.2640  412.0702 H   0  0  0  0  0
   93.1508   18.8117  412.6470 H   0  0  0  0  0
   95.4598   17.5545  411.9217 H   0  0  0  0  0
   93.6450   15.4895  414.9918 H   0  0  0  0  0
   94.3485   14.7112  415.6910 H   0  0  0  0  0
   95.2837   13.4322  413.8740 H   0  0  0  0  0
   97.2654   20.6100  408.4414 H   0  0  0  0  0
 10  1  1  0  0  0
  1 11  1  0  0  0
  1 12  1  0  0  0
  1 13  2  0  0  0
  3  2  1  0  0  0
  4  3  1  0  0  0
  3 14  1  0  0  0
  5  4  1  0  0  0
  6  5  1  0  0  0
  7  6  1  0  0  0
  8  7  1  0  0  0
  8  9  2  0  0  0
  8 10  4  0  0  0
 14 15  1  0  0  0
 14 16  2  0  0  0
  2 17  1  0  0  0
  2 18  1  0  0  0
  2 19  1  0  0  0
  3 20  1  0  0  0
  4 21  1  0  0  0
  4 22  1  0  0  0
  5 23  1  0  0  0
  5 24  1  0  0  0
  6 25  1  0  0  0
  6 26  1  0  0  0
  7 27  1  0  0  0
  9 28  1  0  0  0
 11 29  1  0  0  0
 12 30  1  0  0  0
 15 31  1  0  0  0
M  END
$$$$
