5drr_ligand
  -I-interpret- 

 48 49  0  0  0  0  0  0  0  0999 V2000
  -27.3670   12.8080   -5.2860 C   0  0  0  0  0
  -26.8230   16.3250   -4.0720 C   0  0  0  0  0
  -27.1450   18.7070   -2.8920 C   0  0  0  0  0
  -27.4640   21.1470   -1.8360 C   0  0  0  0  0
  -27.7290   23.7880   -1.0470 C   0  0  0  0  0
  -27.1610   23.5130   -2.2960 C   0  0  0  0  0
  -25.5610   14.9350   -5.6260 C   0  0  0  0  0
  -24.6690   10.5310   -9.8690 C   0  0  0  0  0
  -24.1950    9.3450  -10.6510 C   0  0  0  0  0
  -22.2730   10.3840   -8.0010 O   0  0  0  0  0
  -23.2690    9.6740   -8.0580 C   0  0  0  0  0
  -23.1860    8.3620   -7.5140 N   0  0  0  0  0
  -22.0160    7.8760   -7.2160 O   0  0  0  0  0
  -24.5830   10.2100   -8.4390 C   0  0  0  0  0
  -24.8530   11.3510   -7.6850 N   0  0  0  0  0
  -26.0430   11.4420   -6.9050 C   0  0  0  0  0
  -26.9290   10.6080   -6.9900 O   0  0  0  0  0
  -26.2640   12.6910   -6.1390 C   0  0  0  0  0
  -27.5750   13.9960   -4.5910 C   0  0  0  0  0
  -26.6320   15.0410   -4.7700 C   0  0  0  0  0
  -26.9670   17.3940   -3.5420 C   0  0  0  0  0
  -27.2900   19.7910   -2.3960 C   0  0  0  0  0
  -28.0460   21.4220   -0.6000 C   0  0  0  0  0
  -28.1680   22.7550   -0.2040 C   0  0  0  0  0
  -27.8650   25.1550   -0.6580 N   0  0  0  0  0
  -27.0340   22.1760   -2.6910 C   0  0  0  0  0
  -25.3540   13.7420   -6.3210 C   0  0  0  0  0
  -25.9840   10.7960  -10.1820 O   0  0  0  0  0
  -24.3180    9.5660  -11.9570 F   0  0  0  0  0
  -24.9330    8.2900  -10.3320 F   0  0  0  0  0
  -23.8580   11.7380  -10.2130 C   0  0  0  0  0
  -28.0589   11.9743   -5.1665 H   0  0  0  0  0
  -26.8253   24.3209   -2.9461 H   0  0  0  0  0
  -24.8796   15.7751   -5.7607 H   0  0  0  0  0
  -23.1461    9.1682  -10.4129 H   0  0  0  0  0
  -25.3229    9.4351   -8.2386 H   0  0  0  0  0
  -24.1927   12.1284   -7.6914 H   0  0  0  0  0
  -28.4338   14.1194   -3.9312 H   0  0  0  0  0
  -28.3978   20.6149    0.0426 H   0  0  0  0  0
  -28.6064   22.9950    0.7647 H   0  0  0  0  0
  -27.5522   25.8970   -1.2841 H   0  0  0  0  0
  -28.2750   25.3896    0.2460 H   0  0  0  0  0
  -26.6016   21.9331   -3.6617 H   0  0  0  0  0
  -24.5021   13.6299   -6.9916 H   0  0  0  0  0
  -26.2845   11.5565   -9.6791 H   0  0  0  0  0
  -22.8109   11.5503   -9.9756 H   0  0  0  0  0
  -23.9582   11.9502  -11.2774 H   0  0  0  0  0
  -24.2155   12.5909   -9.6360 H   0  0  0  0  0
 18  1  4  0  0  0
  1 19  4  0  0  0
 20  2  1  0  0  0
  2 21  3  0  0  0
 21  3  1  0  0  0
  3 22  3  0  0  0
 22  4  1  0  0  0
  4 23  4  0  0  0
  4 26  4  0  0  0
  6  5  4  0  0  0
  5 24  4  0  0  0
  5 25  1  0  0  0
 26  6  4  0  0  0
  7 20  4  0  0  0
 27  7  4  0  0  0
  8  9  1  0  0  0
 14  8  1  0  0  0
  8 28  1  0  0  0
  8 31  1  0  0  0
  9 29  1  0  0  0
  9 30  1  0  0  0
 11 10  2  0  0  0
 11 12  1  0  0  0
 14 11  1  0  0  0
 12 13  2  0  0  0
 15 14  1  0  0  0
 16 15  1  0  0  0
 16 17  2  0  0  0
 18 16  1  0  0  0
 18 27  4  0  0  0
 19 20  4  0  0  0
 23 24  4  0  0  0
  1 32  1  0  0  0
  6 33  1  0  0  0
  7 34  1  0  0  0
  9 35  1  0  0  0
 14 36  1  0  0  0
 15 37  1  0  0  0
 19 38  1  0  0  0
 23 39  1  0  0  0
 24 40  1  0  0  0
 25 41  1  0  0  0
 25 42  1  0  0  0
 26 43  1  0  0  0
 27 44  1  0  0  0
 28 45  1  0  0  0
 31 46  1  0  0  0
 31 47  1  0  0  0
 31 48  1  0  0  0
M  END
$$$$
