### 
### Created by X-TOOL on Mon Sep 10 21:13:27 2018
### 

@<TRIPOS>MOLECULE
5drr_ligand
   48    49     1     0     0
SMALL
GAST_HUCK


@<TRIPOS>ATOM
      1 C10       -27.3670   12.8080   -5.2860 C.ar      1 5EN        -0.0417
      2 C13       -26.8230   16.3250   -4.0720 C.1       1 5EN        -0.0524
      3 C15       -27.1450   18.7070   -2.8920 C.1       1 5EN        -0.0146
      4 C17       -27.4640   21.1470   -1.8360 C.ar      1 5EN         0.0145
      5 C20       -27.7290   23.7880   -1.0470 C.ar      1 5EN         0.0378
      6 C22       -27.1610   23.5130   -2.2960 C.ar      1 5EN        -0.0416
      7 C24       -25.5610   14.9350   -5.6260 C.ar      1 5EN        -0.0418
      8 C26       -24.6690   10.5310   -9.8690 C.3       1 5EN         0.1635
      9 C28       -24.1950    9.3450  -10.6510 C.3       1 5EN         0.2715
     10 O01       -22.2730   10.3840   -8.0010 O.2       1 5EN        -0.3255
     11 C02       -23.2690    9.6740   -8.0580 C.2       1 5EN         0.3154
     12 N03       -23.1860    8.3620   -7.5140 N.2       1 5EN         0.0375
     13 O04       -22.0160    7.8760   -7.2160 O.2       1 5EN        -0.1732
     14 C05       -24.5830   10.2100   -8.4390 C.3       1 5EN         0.1784
     15 N06       -24.8530   11.3510   -7.6850 N.am      1 5EN        -0.2616
     16 C07       -26.0430   11.4420   -6.9050 C.2       1 5EN         0.2065
     17 O08       -26.9290   10.6080   -6.9900 O.2       1 5EN        -0.3851
     18 C09       -26.2640   12.6910   -6.1390 C.ar      1 5EN         0.0490
     19 C11       -27.5750   13.9960   -4.5910 C.ar      1 5EN        -0.0418
     20 C12       -26.6320   15.0410   -4.7700 C.ar      1 5EN         0.0281
     21 C14       -26.9670   17.3940   -3.5420 C.1       1 5EN        -0.0115
     22 C16       -27.2900   19.7910   -2.3960 C.1       1 5EN        -0.0616
     23 C18       -28.0460   21.4220   -0.6000 C.ar      1 5EN        -0.0563
     24 C19       -28.1680   22.7550   -0.2040 C.ar      1 5EN        -0.0416
     25 N21       -27.8650   25.1550   -0.6580 N.pl3     1 5EN        -0.3355
     26 C23       -27.0340   22.1760   -2.6910 C.ar      1 5EN        -0.0563
     27 C25       -25.3540   13.7420   -6.3210 C.ar      1 5EN        -0.0417
     28 O27       -25.9840   10.7960  -10.1820 O.3       1 5EN        -0.3785
     29 F29       -24.3180    9.5660  -11.9570 F         1 5EN        -0.2059
     30 F30       -24.9330    8.2900  -10.3320 F         1 5EN        -0.2059
     31 C31       -23.8580   11.7380  -10.2130 C.3       1 5EN        -0.0262
     32 H1        -28.0551   11.9788   -5.1672 H         1 5EN         0.0666
     33 H2        -26.8272   24.3165   -2.9425 H         1 5EN         0.0523
     34 H3        -24.8834   15.7704   -5.7600 H         1 5EN         0.0636
     35 H4        -23.1400    9.1476  -10.4101 H         1 5EN         0.1051
     36 H5        -25.3434    9.4480   -8.2129 H         1 5EN         0.0841
     37 H6        -24.2057   12.1132   -7.6913 H         1 5EN         0.1877
     38 H7        -28.4291   14.1187   -3.9348 H         1 5EN         0.0636
     39 H8        -28.3959   20.6194    0.0391 H         1 5EN         0.0603
     40 H9        -28.6039   22.9936    0.7594 H         1 5EN         0.0523
     41 H10       -27.5389   25.9039   -1.2855 H         1 5EN         0.1731
     42 H11       -28.2892   25.3923    0.2501 H         1 5EN         0.1731
     43 H12       -26.6040   21.9345   -3.6563 H         1 5EN         0.0603
     44 H13       -24.5067   13.6305   -6.9879 H         1 5EN         0.0666
     45 H14       -26.2889   11.5329   -9.6658 H         1 5EN         0.2107
     46 H15       -23.9479   11.9455  -11.2895 H         1 5EN         0.0261
     47 H16       -22.8029   11.5546   -9.9618 H         1 5EN         0.0261
     48 H17       -24.2262   12.6024   -9.6410 H         1 5EN         0.0261
@<TRIPOS>BOND
     1   18    1 ar 
     2    1   19 ar 
     3   20    2 1  
     4    2   21 3  
     5   21    3 1  
     6    3   22 3  
     7   22    4 1  
     8    4   23 ar 
     9    4   26 ar 
    10    6    5 ar 
    11    5   24 ar 
    12    5   25 1  
    13   26    6 ar 
    14    7   20 ar 
    15   27    7 ar 
    16    8    9 1  
    17   14    8 1  
    18    8   28 1  
    19    8   31 1  
    20    9   29 1  
    21    9   30 1  
    22   11   10 2  
    23   11   12 1  
    24   14   11 1  
    25   12   13 2  
    26   15   14 1  
    27   16   15 am 
    28   16   17 2  
    29   18   16 1  
    30   18   27 ar 
    31   19   20 ar 
    32   23   24 ar 
    33    1   32 1  
    34    6   33 1  
    35    7   34 1  
    36    9   35 1  
    37   14   36 1  
    38   15   37 1  
    39   19   38 1  
    40   23   39 1  
    41   24   40 1  
    42   25   41 1  
    43   25   42 1  
    44   26   43 1  
    45   27   44 1  
    46   28   45 1  
    47   31   46 1  
    48   31   47 1  
    49   31   48 1  
@<TRIPOS>SUBSTRUCTURE
     1 5EN         1

