4azg_ligand
  -I-interpret- 

 44 45  0  0  0  0  0  0  0  0999 V2000
   18.2330   34.4060   57.3620 C   0  0  0  0  0
   19.2330   34.6110   56.2180 C   0  0  0  0  0
   19.5060   33.6890   55.4360 O   0  0  0  0  0
   19.6990   35.8610   56.1330 N   0  0  0  0  0
   20.6400   36.3360   55.1070 C   0  0  0  0  0
   19.8810   36.5170   53.7740 C   0  0  0  0  0
   19.2890   37.8250   53.6570 O   0  0  0  0  0
   20.7800   36.1850   52.5830 C   0  0  0  0  0
   20.0260   36.3530   51.3990 O   0  0  0  0  0
   21.2440   34.7310   52.6860 C   0  0  0  0  0
   22.1890   34.2630   51.6220 C   0  0  0  0  0
   23.4270   34.9610   51.7330 O   0  0  0  0  0
   22.0140   34.5160   53.8430 O   0  0  0  0  0
   21.8240   35.3540   54.9340 C   0  0  0  0  0
   22.7520   35.2680   55.8920 N   0  0  0  0  0
   23.7790   34.3930   55.6050 O   0  0  0  0  0
   24.9000   34.6160   56.3480 C   0  0  0  0  0
   25.7440   33.7260   56.4790 O   0  0  0  0  0
   25.0010   35.8200   56.9170 N   0  0  0  0  0
   25.9740   36.2340   57.7500 C   0  0  0  0  0
   25.6230   36.4920   59.0910 C   0  0  0  0  0
   26.5700   36.9280   60.0100 C   0  0  0  0  0
   27.8790   37.1220   59.5790 C   0  0  0  0  0
   28.2490   36.8740   58.2410 C   0  0  0  0  0
   27.2990   36.4260   57.3130 C   0  0  0  0  0
   17.2634   34.1269   56.9496 H   0  0  0  0  0
   18.5917   33.6135   58.0188 H   0  0  0  0  0
   18.1355   35.3324   57.9280 H   0  0  0  0  0
   19.3791   36.5338   56.8297 H   0  0  0  0  0
   21.0569   37.2924   55.4227 H   0  0  0  0  0
   19.0538   35.8072   53.7707 H   0  0  0  0  0
   18.7342   37.9935   54.4221 H   0  0  0  0  0
   21.6515   36.8396   52.5735 H   0  0  0  0  0
   19.7343   37.2653   51.3334 H   0  0  0  0  0
   20.2917   34.2029   52.6369 H   0  0  0  0  0
   21.7527   34.4575   50.6422 H   0  0  0  0  0
   22.3663   33.1943   51.7427 H   0  0  0  0  0
   24.0273   34.6563   51.0486 H   0  0  0  0  0
   24.2670   36.4937   56.6984 H   0  0  0  0  0
   24.5916   36.3471   59.4123 H   0  0  0  0  0
   26.2930   37.1143   61.0476 H   0  0  0  0  0
   28.6304   37.4713   60.2871 H   0  0  0  0  0
   29.2806   37.0318   57.9264 H   0  0  0  0  0
   27.5790   36.2309   56.2778 H   0  0  0  0  0
  1  2  1  0  0  0
  2  3  2  0  0  0
  2  4  1  0  0  0
  4  5  1  0  0  0
  5  6  1  0  0  0
  5 14  1  0  0  0
  6  7  1  0  0  0
  6  8  1  0  0  0
  8  9  1  0  0  0
  8 10  1  0  0  0
 10 11  1  0  0  0
 10 13  1  0  0  0
 11 12  1  0  0  0
 13 14  1  0  0  0
 14 15  2  0  0  0
 15 16  1  0  0  0
 16 17  1  0  0  0
 17 18  2  0  0  0
 17 19  1  0  0  0
 19 20  1  0  0  0
 20 21  4  0  0  0
 20 25  4  0  0  0
 21 22  4  0  0  0
 22 23  4  0  0  0
 23 24  4  0  0  0
 24 25  4  0  0  0
  1 26  1  0  0  0
  1 27  1  0  0  0
  1 28  1  0  0  0
  4 29  1  0  0  0
  5 30  1  0  0  0
  6 31  1  0  0  0
  7 32  1  0  0  0
  8 33  1  0  0  0
  9 34  1  0  0  0
 10 35  1  0  0  0
 11 36  1  0  0  0
 11 37  1  0  0  0
 12 38  1  0  0  0
 19 39  1  0  0  0
 21 40  1  0  0  0
 22 41  1  0  0  0
 23 42  1  0  0  0
 24 43  1  0  0  0
 25 44  1  0  0  0
M  END
$$$$
