### 
### Created by X-TOOL on Mon Sep 10 21:13:14 2018
### 

@<TRIPOS>MOLECULE
4azg_ligand
   44    45     1     0     0
SMALL
GAST_HUCK


@<TRIPOS>ATOM
      1 CAH        18.2330   34.4060   57.3620 C.3       1 OAN         0.0258
      2 CAG        19.2330   34.6110   56.2180 C.2       1 OAN         0.1755
      3 OAN        19.5060   33.6890   55.4360 O.2       1 OAN        -0.3972
      4 NAI        19.6990   35.8610   56.1330 N.am      1 OAN        -0.2641
      5 CAB        20.6400   36.3360   55.1070 C.3       1 OAN         0.1483
      6 CAC        19.8810   36.5170   53.7740 C.3       1 OAN         0.1223
      7 OAJ        19.2890   37.8250   53.6570 O.3       1 OAN        -0.3842
      8 CAD        20.7800   36.1850   52.5830 C.3       1 OAN         0.1187
      9 OAK        20.0260   36.3530   51.3990 O.3       1 OAN        -0.3859
     10 CAE        21.2440   34.7310   52.6860 C.3       1 OAN         0.1375
     11 CAF        22.1890   34.2630   51.6220 C.3       1 OAN         0.0780
     12 OAM        23.4270   34.9610   51.7330 O.3       1 OAN        -0.3919
     13 OAL        22.0140   34.5160   53.8430 O.3       1 OAN        -0.2871
     14 CAA        21.8240   35.3540   54.9340 C.2       1 OAN         0.1893
     15 NAY        22.7520   35.2680   55.8920 N.2       1 OAN        -0.1541
     16 OAQ        23.7790   34.3930   55.6050 O.3       1 OAN        -0.1506
     17 CAP        24.9000   34.6160   56.3480 C.2       1 OAN         0.3788
     18 OAR        25.7440   33.7260   56.4790 O.2       1 OAN        -0.3643
     19 NAO        25.0010   35.8200   56.9170 N.am      1 OAN        -0.2057
     20 CAS        25.9740   36.2340   57.7500 C.ar      1 OAN         0.0683
     21 CAT        25.6230   36.4920   59.0910 C.ar      1 OAN        -0.0414
     22 CAU        26.5700   36.9280   60.0100 C.ar      1 OAN        -0.0756
     23 CAV        27.8790   37.1220   59.5790 C.ar      1 OAN        -0.0773
     24 CAW        28.2490   36.8740   58.2410 C.ar      1 OAN        -0.0756
     25 CAX        27.2990   36.4260   57.3130 C.ar      1 OAN        -0.0414
     26 H1         18.1337   35.3403   57.9340 H         1 OAN         0.0467
     27 H2         18.5939   33.6064   58.0256 H         1 OAN         0.0467
     28 H3         17.2539   34.1243   56.9472 H         1 OAN         0.0467
     29 H4         19.3853   36.5206   56.8160 H         1 OAN         0.1888
     30 H5         21.0417   37.3106   55.4213 H         1 OAN         0.0821
     31 H6         19.0552   35.7903   53.7700 H         1 OAN         0.0672
     32 H7         18.6729   37.9573   54.3679 H         1 OAN         0.2103
     33 H8         21.6527   36.8545   52.5720 H         1 OAN         0.0653
     34 H9         20.5701   36.1505   50.6470 H         1 OAN         0.2100
     35 H10        20.3476   34.0935   52.6921 H         1 OAN         0.0708
     36 H11        21.7489   34.4557   50.6325 H         1 OAN         0.0588
     37 H12        22.3666   33.1839   51.7405 H         1 OAN         0.0588
     38 H13        23.2742   35.8930   51.6298 H         1 OAN         0.2095
     39 H14        24.2814   36.4805   56.7027 H         1 OAN         0.2276
     40 H15        24.5972   36.3479   59.4105 H         1 OAN         0.0501
     41 H16        26.2946   37.1133   61.0419 H         1 OAN         0.0577
     42 H17        28.6263   37.4694   60.2832 H         1 OAN         0.0487
     43 H18        29.2750   37.0309   57.9282 H         1 OAN         0.0577
     44 H19        27.5774   36.2319   56.2835 H         1 OAN         0.0501
@<TRIPOS>BOND
     1    1    2 1  
     2    2    3 2  
     3    2    4 am 
     4    4    5 1  
     5    5    6 1  
     6    5   14 1  
     7    6    7 1  
     8    6    8 1  
     9    8    9 1  
    10    8   10 1  
    11   10   11 1  
    12   10   13 1  
    13   11   12 1  
    14   13   14 1  
    15   14   15 2  
    16   15   16 1  
    17   16   17 1  
    18   17   18 2  
    19   17   19 am 
    20   19   20 1  
    21   20   21 ar 
    22   20   25 ar 
    23   21   22 ar 
    24   22   23 ar 
    25   23   24 ar 
    26   24   25 ar 
    27    1   26 1  
    28    1   27 1  
    29    1   28 1  
    30    4   29 1  
    31    5   30 1  
    32    6   31 1  
    33    7   32 1  
    34    8   33 1  
    35    9   34 1  
    36   10   35 1  
    37   11   36 1  
    38   11   37 1  
    39   12   38 1  
    40   19   39 1  
    41   21   40 1  
    42   22   41 1  
    43   23   42 1  
    44   24   43 1  
    45   25   44 1  
@<TRIPOS>SUBSTRUCTURE
     1 OAN         1

