5l9o_ligand
  -I-interpret- 

 44 43  0  0  0  0  0  0  0  0999 V2000
   42.3890  -65.7650   35.9170 O   0  0  0  0  0
   43.2290  -64.8220   35.2360 C   0  0  0  0  0
   42.5370  -63.6400   34.5180 C   0  0  0  0  0
   43.5210  -63.0340   33.6590 O   0  0  0  0  0
   41.1690  -63.8800   33.8080 C   0  0  0  0  0
   40.5720  -62.6040   33.5850 O   0  0  0  0  0
   41.0150  -64.7750   32.5520 C   0  0  0  0  0
   39.6610  -64.7540   32.0260 O   0  0  0  0  0
   41.3740  -66.2380   32.8810 C   0  0  0  0  0
   40.6230  -66.7490   33.9990 O   0  0  0  0  0
   41.2670  -67.1720   31.6800 C   0  0  0  0  0
   42.0070  -68.4090   31.9590 N   0  3  0  0  0
   41.9340  -69.3660   30.8490 C   0  0  0  0  0
   40.6080  -70.1160   30.9280 C   0  0  0  0  0
   40.4150  -70.8910   29.9740 O   0  0  0  0  0
   43.1180  -70.3350   30.8650 C   0  0  0  0  0
   43.1650  -71.1710   32.1460 C   0  0  0  0  0
   44.4400  -72.0250   32.2500 C   0  0  0  0  0
   44.7720  -72.4280   33.3680 O   0  0  0  0  0
   45.1260  -72.3200   31.1320 N   0  0  0  0  0
   39.8600  -69.9350   31.9320 O   0  0  0  0  0
   42.9340  -66.4454   36.3189 H   0  0  0  0  0
   43.7315  -65.3886   34.4520 H   0  0  0  0  0
   43.8524  -64.3722   36.0087 H   0  0  0  0  0
   42.1956  -62.9711   35.3080 H   0  0  0  0  0
   44.3382  -62.9110   34.1474 H   0  0  0  0  0
   40.6689  -64.5360   34.5204 H   0  0  0  0  0
   40.6753  -62.0619   34.3705 H   0  0  0  0  0
   41.6948  -64.3705   31.8021 H   0  0  0  0  0
   39.4154  -63.8506   31.8136 H   0  0  0  0  0
   42.4254  -66.2147   33.1676 H   0  0  0  0  0
   40.8792  -67.6590   34.1660 H   0  0  0  0  0
   41.6889  -66.6852   30.8007 H   0  0  0  0  0
   40.2193  -67.4080   31.4938 H   0  0  0  0  0
   41.5918  -68.8468   32.7814 H   0  0  0  0  0
   42.9871  -68.1653   32.1020 H   0  0  0  0  0
   41.9866  -68.8215   29.9062 H   0  0  0  0  0
   44.0357  -69.7495   30.8088 H   0  0  0  0  0
   43.0103  -71.0154   30.0203 H   0  0  0  0  0
   42.3094  -71.8462   32.1369 H   0  0  0  0  0
   43.1506  -70.4860   32.9938 H   0  0  0  0  0
   45.9622  -72.9017   31.1853 H   0  0  0  0  0
   44.8103  -71.9621   30.2305 H   0  0  0  0  0
   40.2559  -69.2790   32.5104 H   0  0  0  0  0
  1  2  1  0  0  0
  2  3  1  0  0  0
  3  4  1  0  0  0
  3  5  1  0  0  0
  5  6  1  0  0  0
  5  7  1  0  0  0
  7  8  1  0  0  0
  7  9  1  0  0  0
  9 10  1  0  0  0
  9 11  1  0  0  0
 11 12  1  0  0  0
 12 13  1  0  0  0
 13 14  1  0  0  0
 13 16  1  0  0  0
 14 15  2  0  0  0
 14 21  1  0  0  0
 16 17  1  0  0  0
 17 18  1  0  0  0
 18 19  2  0  0  0
 18 20  1  0  0  0
  1 22  1  0  0  0
  2 23  1  0  0  0
  2 24  1  0  0  0
  3 25  1  0  0  0
  4 26  1  0  0  0
  5 27  1  0  0  0
  6 28  1  0  0  0
  7 29  1  0  0  0
  8 30  1  0  0  0
  9 31  1  0  0  0
 10 32  1  0  0  0
 11 33  1  0  0  0
 11 34  1  0  0  0
 12 35  1  0  0  0
 12 36  1  0  0  0
 13 37  1  0  0  0
 16 38  1  0  0  0
 16 39  1  0  0  0
 17 40  1  0  0  0
 17 41  1  0  0  0
 20 42  1  0  0  0
 20 43  1  0  0  0
 21 44  1  0  0  0
M  END
$$$$
