### 
### Created by X-TOOL on Mon Sep 10 21:13:29 2018
### 

@<TRIPOS>MOLECULE
5l9o_ligand
   43    42     1     0     0
SMALL
GAST_HUCK


@<TRIPOS>ATOM
      1 OAN        42.3890  -65.7650   35.9170 O.3       1 GOP        -0.3924
      2 CAM        43.2290  -64.8220   35.2360 C.3       1 GOP         0.0727
      3 CAL        42.5370  -63.6400   34.5180 C.3       1 GOP         0.1065
      4 OAT        43.5210  -63.0340   33.6590 O.3       1 GOP        -0.3869
      5 CAK        41.1690  -63.8800   33.8080 C.3       1 GOP         0.1116
      6 OAS        40.5720  -62.6040   33.5850 O.3       1 GOP        -0.3865
      7 CAJ        41.0150  -64.7750   32.5520 C.3       1 GOP         0.1143
      8 OAR        39.6610  -64.7540   32.0260 O.3       1 GOP        -0.3864
      9 CAI        41.3740  -66.2380   32.8810 C.3       1 GOP         0.1230
     10 OAQ        40.6230  -66.7490   33.9990 O.3       1 GOP        -0.3838
     11 CAH        41.2670  -67.1720   31.6800 C.3       1 GOP        -0.0029
     12 N          42.0070  -68.4090   31.9590 N.4       1 GOP         0.2429
     13 CA         41.9340  -69.3660   30.8490 C.3       1 GOP         0.0323
     14 C          40.6080  -70.1160   30.9280 C.2       1 GOP         0.0846
     15 O          40.4150  -70.8910   29.9740 O.co2     1 GOP        -0.5643
     16 CB         43.1180  -70.3350   30.8650 C.3       1 GOP         0.0193
     17 CG         43.1650  -71.1710   32.1460 C.3       1 GOP         0.0437
     18 CD         44.4400  -72.0250   32.2500 C.2       1 GOP         0.1738
     19 OE1        44.7720  -72.4280   33.3680 O.2       1 GOP        -0.3973
     20 NE2        45.1260  -72.3200   31.1320 N.am      1 GOP        -0.3009
     21 OXT        39.8600  -69.9350   31.9320 O.co2     1 GOP        -0.5643
     22 H1         41.7918  -66.1628   35.2944 H         1 GOP         0.2095
     23 H2         43.8023  -65.3774   34.4792 H         1 GOP         0.0584
     24 H3         43.9190  -64.3974   35.9801 H         1 GOP         0.0584
     25 H4         42.3108  -62.9076   35.3070 H         1 GOP         0.0643
     26 H5         43.1297  -62.3004   33.1993 H         1 GOP         0.2100
     27 H6         40.5564  -64.3888   34.5668 H         1 GOP         0.0647
     28 H7         39.7342  -62.7189   33.1522 H         1 GOP         0.2100
     29 H8         41.7012  -64.4020   31.7774 H         1 GOP         0.0648
     30 H9         39.4297  -63.8646   31.7854 H         1 GOP         0.2100
     31 H10        42.4316  -66.2358   33.1835 H         1 GOP         0.0674
     32 H11        40.8765  -67.6495   34.1643 H         1 GOP         0.2101
     33 H12        41.6940  -66.6806   30.7933 H         1 GOP         0.0840
     34 H13        40.2096  -67.4108   31.4934 H         1 GOP         0.0840
     35 H14        41.6190  -68.8395   32.7837 H         1 GOP         0.2031
     36 H15        42.9741  -68.1777   32.1240 H         1 GOP         0.2031
     37 H16        41.9641  -68.8061   29.9027 H         1 GOP         0.1026
     38 H17        44.0501  -69.7564   30.7855 H         1 GOP         0.0363
     39 H18        43.0325  -71.0128   30.0029 H         1 GOP         0.0363
     40 H19        42.2914  -71.8392   32.1626 H         1 GOP         0.0505
     41 H20        43.1242  -70.4926   33.0109 H         1 GOP         0.0505
     42 H21        45.9565  -72.8744   31.1866 H         1 GOP         0.1814
     43 H22        44.8058  -71.9850   30.2459 H         1 GOP         0.1814
@<TRIPOS>BOND
     1    1    2 1  
     2    2    3 1  
     3    3    4 1  
     4    3    5 1  
     5    5    6 1  
     6    5    7 1  
     7    7    8 1  
     8    7    9 1  
     9    9   10 1  
    10    9   11 1  
    11   11   12 1  
    12   12   13 1  
    13   13   14 1  
    14   13   16 1  
    15   14   15 ar 
    16   14   21 ar 
    17   16   17 1  
    18   17   18 1  
    19   18   19 2  
    20   18   20 am 
    21    1   22 1  
    22    2   23 1  
    23    2   24 1  
    24    3   25 1  
    25    4   26 1  
    26    5   27 1  
    27    6   28 1  
    28    7   29 1  
    29    8   30 1  
    30    9   31 1  
    31   10   32 1  
    32   11   33 1  
    33   11   34 1  
    34   12   35 1  
    35   12   36 1  
    36   13   37 1  
    37   16   38 1  
    38   16   39 1  
    39   17   40 1  
    40   17   41 1  
    41   20   42 1  
    42   20   43 1  
@<TRIPOS>SUBSTRUCTURE
     1 GOP         1

