### 
### Created by X-TOOL on Mon Sep 10 21:12:46 2018
### 

@<TRIPOS>MOLECULE
1qbu_ligand
   79    84     1     0     0
SMALL
GAST_HUCK


@<TRIPOS>ATOM
      1 C1         -8.4310   14.9430   27.8830 C.2       1 846         0.2652
      2 C2         -9.1410   14.2310   30.1170 C.3       1 846         0.0693
      3 C3        -10.5030   15.9410   28.9030 C.3       1 846         0.0853
      4 C4        -10.3490   17.4280   28.6090 C.3       1 846         0.1081
      5 C5        -10.0200   17.6840   27.1590 C.3       1 846         0.1079
      6 C6         -8.6250   17.2010   26.8480 C.3       1 846         0.0831
      7 C7         -7.9940   15.1790   25.4800 C.3       1 846         0.0376
      8 C20        -9.1650   14.8710   31.5030 C.ar      1 846        -0.0155
      9 C21       -10.0010   14.3590   32.5370 C.ar      1 846        -0.0381
     10 C22        -9.9670   14.9410   33.8310 C.ar      1 846         0.0516
     11 C23        -9.1170   16.0360   34.0690 C.ar      1 846        -0.0482
     12 C24        -8.2910   16.5500   33.0550 C.ar      1 846        -0.0628
     13 C25        -8.3180   15.9630   31.7790 C.ar      1 846        -0.0541
     14 C26       -10.7490   14.4020   35.0090 C.2       1 846         0.2423
     15 C27       -11.5060   12.2730   36.1660 C.2       1 846         0.2055
     16 C28       -12.0960   10.4150   37.3810 C.2       1 846        -0.0465
     17 C29       -12.6050   11.3770   38.2760 C.2       1 846        -0.0078
     18 C31       -11.6160   15.2050   28.1360 C.3       1 846         0.0067
     19 C32       -12.2960   14.1520   28.9750 C.ar      1 846        -0.0408
     20 C33       -12.1790   12.7890   28.6390 C.ar      1 846        -0.0603
     21 C34       -12.8140   11.8170   29.4460 C.ar      1 846        -0.0686
     22 C35       -13.5600   12.2170   30.5750 C.ar      1 846        -0.0687
     23 C36       -13.6810   13.5810   30.9060 C.ar      1 846        -0.0686
     24 C37       -13.0500   14.5510   30.1050 C.ar      1 846        -0.0603
     25 C61        -7.4930   17.8340   27.6890 C.3       1 846         0.0065
     26 C62        -6.1330   17.7080   27.0430 C.ar      1 846        -0.0408
     27 C63        -5.8060   18.5480   25.9500 C.ar      1 846        -0.0603
     28 C64        -4.5720   18.4030   25.2950 C.ar      1 846        -0.0686
     29 C65        -3.6600   17.4230   25.7340 C.ar      1 846        -0.0687
     30 C66        -3.9840   16.5900   26.8310 C.ar      1 846        -0.0686
     31 C67        -5.2240   16.7320   27.4940 C.ar      1 846        -0.0603
     32 C70        -8.7080   15.8910   24.3120 C.3       1 846        -0.0208
     33 C71        -8.4800   15.2400   22.9400 C.3       1 846        -0.0481
     34 C72        -9.8120   15.0370   23.6850 C.3       1 846        -0.0481
     35 N2         -9.2970   15.0920   28.9270 N.am      1 846        -0.2405
     36 N7         -8.4300   15.7430   26.7810 N.am      1 846        -0.2514
     37 N26       -10.9260   13.0660   35.0450 N.am      1 846        -0.1936
     38 N27       -11.5000   10.9190   36.2370 N.2       1 846        -0.3232
     39 O1         -7.6190   14.0300   27.9240 O.2       1 846        -0.4003
     40 O4        -11.5760   18.0250   28.9640 O.3       1 846        -0.3867
     41 O5        -10.0070   19.0630   26.8620 O.3       1 846        -0.3867
     42 O26       -11.1540   15.1220   35.9060 O.2       1 846        -0.3680
     43 S29       -12.2660   12.8630   37.5590 S.3       1 846         0.0111
     44 H1         -8.1746   13.7152   30.0171 H         1 846         0.0683
     45 H2         -9.9555   13.4922   30.0892 H         1 846         0.0683
     46 H3        -10.8461   15.9405   29.9481 H         1 846         0.0607
     47 H4         -9.5414   17.8437   29.2294 H         1 846         0.0645
     48 H5        -10.7558   17.1671   26.5255 H         1 846         0.0644
     49 H6         -8.4503   17.5560   25.8216 H         1 846         0.0605
     50 H7         -8.2363   14.1064   25.4517 H         1 846         0.0522
     51 H8         -6.9072   15.3123   25.3743 H         1 846         0.0522
     52 H9        -10.6631   13.5248   32.3353 H         1 846         0.0608
     53 H10        -9.0987   16.4917   35.0524 H         1 846         0.0611
     54 H11        -7.6386   17.3922   33.2557 H         1 846         0.0611
     55 H12        -7.6788   16.3552   30.9963 H         1 846         0.0593
     56 H13       -12.1666    9.3459   37.5760 H         1 846         0.0498
     57 H14       -13.1082   11.1985   39.2251 H         1 846         0.0574
     58 H15       -11.1749   14.7212   27.2521 H         1 846         0.0449
     59 H16       -12.3685   15.9401   27.8145 H         1 846         0.0449
     60 H17       -11.6069   12.4878   27.7689 H         1 846         0.0557
     61 H18       -12.7278   10.7654   29.1976 H         1 846         0.0599
     62 H19       -14.0438   11.4688   31.1925 H         1 846         0.0559
     63 H20       -14.2573   13.8819   31.7734 H         1 846         0.0599
     64 H21       -13.1411   15.6023   30.3529 H         1 846         0.0557
     65 H22        -7.4630   17.3340   28.6683 H         1 846         0.0449
     66 H23        -7.7163   18.9019   27.8292 H         1 846         0.0449
     67 H24        -6.5091   19.3036   25.6188 H         1 846         0.0557
     68 H25        -4.3225   19.0421   24.4557 H         1 846         0.0599
     69 H26        -2.7074   17.3068   25.2300 H         1 846         0.0559
     70 H27        -3.2772   15.8388   27.1647 H         1 846         0.0599
     71 H28        -5.4718   16.0984   28.3379 H         1 846         0.0557
     72 H29        -8.7898   16.9793   24.4494 H         1 846         0.0320
     73 H30        -7.7730   14.4036   22.8378 H         1 846         0.0269
     74 H31        -8.4450   15.8626   22.0338 H         1 846         0.0269
     75 H32       -10.7298   15.5135   23.3102 H         1 846         0.0269
     76 H33       -10.0578   14.0545   24.1141 H         1 846         0.0269
     77 H34       -10.6383   12.5539   34.2357 H         1 846         0.2406
     78 H35       -11.5318   18.9595   28.7985 H         1 846         0.2100
     79 H36       -10.8626   19.4332   27.0447 H         1 846         0.2100
@<TRIPOS>BOND
     1    1   39 2  
     2    1   36 am 
     3    1   35 am 
     4   35    3 1  
     5   35    2 1  
     6    2    8 1  
     7    8   13 ar 
     8    8    9 ar 
     9    9   10 ar 
    10   10   14 1  
    11   10   11 ar 
    12   11   12 ar 
    13   12   13 ar 
    14   14   42 2  
    15   14   37 am 
    16   37   15 am 
    17   15   38 2  
    18   15   43 1  
    19   43   17 1  
    20   17   16 2  
    21   16   38 1  
    22    3   18 1  
    23    3    4 1  
    24    4   40 1  
    25    4    5 1  
    26    5   41 1  
    27    5    6 1  
    28    6   36 1  
    29    6   25 1  
    30   25   26 1  
    31   26   31 ar 
    32   26   27 ar 
    33   27   28 ar 
    34   28   29 ar 
    35   29   30 ar 
    36   30   31 ar 
    37   36    7 1  
    38    7   32 1  
    39   32   34 1  
    40   32   33 1  
    41   33   34 1  
    42   18   19 1  
    43   19   24 ar 
    44   19   20 ar 
    45   20   21 ar 
    46   21   22 ar 
    47   22   23 ar 
    48   23   24 ar 
    49    2   44 1  
    50    2   45 1  
    51    3   46 1  
    52    4   47 1  
    53    5   48 1  
    54    6   49 1  
    55    7   50 1  
    56    7   51 1  
    57    9   52 1  
    58   11   53 1  
    59   12   54 1  
    60   13   55 1  
    61   16   56 1  
    62   17   57 1  
    63   18   58 1  
    64   18   59 1  
    65   20   60 1  
    66   21   61 1  
    67   22   62 1  
    68   23   63 1  
    69   24   64 1  
    70   25   65 1  
    71   25   66 1  
    72   27   67 1  
    73   28   68 1  
    74   29   69 1  
    75   30   70 1  
    76   31   71 1  
    77   32   72 1  
    78   33   73 1  
    79   33   74 1  
    80   34   75 1  
    81   34   76 1  
    82   37   77 1  
    83   40   78 1  
    84   41   79 1  
@<TRIPOS>SUBSTRUCTURE
     1 846         1

