1qbu_ligand
  -I-interpret- 

 79 84  0  0  0  0  0  0  0  0999 V2000
   -8.4310   14.9430   27.8830 C   0  0  0  0  0
   -9.1410   14.2310   30.1170 C   0  0  0  0  0
  -10.5030   15.9410   28.9030 C   0  0  0  0  0
  -10.3490   17.4280   28.6090 C   0  0  0  0  0
  -10.0200   17.6840   27.1590 C   0  0  0  0  0
   -8.6250   17.2010   26.8480 C   0  0  0  0  0
   -7.9940   15.1790   25.4800 C   0  0  0  0  0
   -9.1650   14.8710   31.5030 C   0  0  0  0  0
  -10.0010   14.3590   32.5370 C   0  0  0  0  0
   -9.9670   14.9410   33.8310 C   0  0  0  0  0
   -9.1170   16.0360   34.0690 C   0  0  0  0  0
   -8.2910   16.5500   33.0550 C   0  0  0  0  0
   -8.3180   15.9630   31.7790 C   0  0  0  0  0
  -10.7490   14.4020   35.0090 C   0  0  0  0  0
  -11.5060   12.2730   36.1660 C   0  0  0  0  0
  -12.0960   10.4150   37.3810 C   0  0  0  0  0
  -12.6050   11.3770   38.2760 C   0  0  0  0  0
  -11.6160   15.2050   28.1360 C   0  0  0  0  0
  -12.2960   14.1520   28.9750 C   0  0  0  0  0
  -12.1790   12.7890   28.6390 C   0  0  0  0  0
  -12.8140   11.8170   29.4460 C   0  0  0  0  0
  -13.5600   12.2170   30.5750 C   0  0  0  0  0
  -13.6810   13.5810   30.9060 C   0  0  0  0  0
  -13.0500   14.5510   30.1050 C   0  0  0  0  0
   -7.4930   17.8340   27.6890 C   0  0  0  0  0
   -6.1330   17.7080   27.0430 C   0  0  0  0  0
   -5.8060   18.5480   25.9500 C   0  0  0  0  0
   -4.5720   18.4030   25.2950 C   0  0  0  0  0
   -3.6600   17.4230   25.7340 C   0  0  0  0  0
   -3.9840   16.5900   26.8310 C   0  0  0  0  0
   -5.2240   16.7320   27.4940 C   0  0  0  0  0
   -8.7080   15.8910   24.3120 C   0  0  0  0  0
   -8.4800   15.2400   22.9400 C   0  0  0  0  0
   -9.8120   15.0370   23.6850 C   0  0  0  0  0
   -9.2970   15.0920   28.9270 N   0  0  0  0  0
   -8.4300   15.7430   26.7810 N   0  0  0  0  0
  -10.9260   13.0660   35.0450 N   0  0  0  0  0
  -11.5000   10.9190   36.2370 N   0  0  0  0  0
   -7.6190   14.0300   27.9240 O   0  0  0  0  0
  -11.5760   18.0250   28.9640 O   0  0  0  0  0
  -10.0070   19.0630   26.8620 O   0  0  0  0  0
  -11.1540   15.1220   35.9060 O   0  0  0  0  0
  -12.2660   12.8630   37.5590 S   0  0  0  0  0
   -8.1436   13.8015   30.0236 H   0  0  0  0  0
  -10.0062   13.5683   30.0991 H   0  0  0  0  0
  -10.8044   16.0609   29.9436 H   0  0  0  0  0
   -9.5199   17.8495   29.1773 H   0  0  0  0  0
  -10.7827   17.1644   26.5790 H   0  0  0  0  0
   -8.5383   17.5777   25.8288 H   0  0  0  0  0
   -8.2448   14.1186   25.4532 H   0  0  0  0  0
   -6.9184   15.3221   25.3760 H   0  0  0  0  0
  -10.6668   13.5202   32.3342 H   0  0  0  0  0
   -9.0986   16.4942   35.0578 H   0  0  0  0  0
   -7.6350   17.3968   33.2568 H   0  0  0  0  0
   -7.6753   16.3574   30.9919 H   0  0  0  0  0
  -12.1667    9.3449   37.5762 H   0  0  0  0  0
  -13.1087   11.1983   39.2260 H   0  0  0  0  0
  -11.1622   14.7099   27.2775 H   0  0  0  0  0
  -12.3666   15.9398   27.8450 H   0  0  0  0  0
  -11.6037   12.4861   27.7641 H   0  0  0  0  0
  -12.7273   10.7596   29.1962 H   0  0  0  0  0
  -14.0465   11.4647   31.1959 H   0  0  0  0  0
  -14.2605   13.8836   31.7782 H   0  0  0  0  0
  -13.1417   15.6082   30.3543 H   0  0  0  0  0
   -7.4562   17.3088   28.6434 H   0  0  0  0  0
   -7.7127   18.8965   27.7937 H   0  0  0  0  0
   -6.5130   19.3078   25.6169 H   0  0  0  0  0
   -4.3212   19.0456   24.4511 H   0  0  0  0  0
   -2.7021   17.3061   25.2272 H   0  0  0  0  0
   -3.2733   15.8347   27.1665 H   0  0  0  0  0
   -5.4731   16.0949   28.3426 H   0  0  0  0  0
   -8.6303   16.9078   24.6968 H   0  0  0  0  0
   -7.7247   14.6403   22.4321 H   0  0  0  0  0
   -8.1305   15.5213   21.9466 H   0  0  0  0  0
  -10.8807   15.1038   23.4813 H   0  0  0  0  0
  -10.4727   14.2181   23.9694 H   0  0  0  0  0
  -10.6326   12.5436   34.2195 H   0  0  0  0  0
  -11.7612   17.8474   29.8891 H   0  0  0  0  0
  -10.8737   19.4357   27.0398 H   0  0  0  0  0
  1 39  2  0  0  0
  1 36  1  0  0  0
  1 35  1  0  0  0
 35  3  1  0  0  0
 35  2  1  0  0  0
  2  8  1  0  0  0
  8 13  4  0  0  0
  8  9  4  0  0  0
  9 10  4  0  0  0
 10 14  1  0  0  0
 10 11  4  0  0  0
 11 12  4  0  0  0
 12 13  4  0  0  0
 14 42  2  0  0  0
 14 37  1  0  0  0
 37 15  1  0  0  0
 15 38  4  0  0  0
 15 43  4  0  0  0
 43 17  4  0  0  0
 17 16  4  0  0  0
 16 38  4  0  0  0
  3 18  1  0  0  0
  3  4  1  0  0  0
  4 40  1  0  0  0
  4  5  1  0  0  0
  5 41  1  0  0  0
  5  6  1  0  0  0
  6 36  1  0  0  0
  6 25  1  0  0  0
 25 26  1  0  0  0
 26 31  4  0  0  0
 26 27  4  0  0  0
 27 28  4  0  0  0
 28 29  4  0  0  0
 29 30  4  0  0  0
 30 31  4  0  0  0
 36  7  1  0  0  0
  7 32  1  0  0  0
 32 34  1  0  0  0
 32 33  1  0  0  0
 33 34  1  0  0  0
 18 19  1  0  0  0
 19 24  4  0  0  0
 19 20  4  0  0  0
 20 21  4  0  0  0
 21 22  4  0  0  0
 22 23  4  0  0  0
 23 24  4  0  0  0
  2 44  1  0  0  0
  2 45  1  0  0  0
  3 46  1  0  0  0
  4 47  1  0  0  0
  5 48  1  0  0  0
  6 49  1  0  0  0
  7 50  1  0  0  0
  7 51  1  0  0  0
  9 52  1  0  0  0
 11 53  1  0  0  0
 12 54  1  0  0  0
 13 55  1  0  0  0
 16 56  1  0  0  0
 17 57  1  0  0  0
 18 58  1  0  0  0
 18 59  1  0  0  0
 20 60  1  0  0  0
 21 61  1  0  0  0
 22 62  1  0  0  0
 23 63  1  0  0  0
 24 64  1  0  0  0
 25 65  1  0  0  0
 25 66  1  0  0  0
 27 67  1  0  0  0
 28 68  1  0  0  0
 29 69  1  0  0  0
 30 70  1  0  0  0
 31 71  1  0  0  0
 32 72  1  0  0  0
 33 73  1  0  0  0
 33 74  1  0  0  0
 34 75  1  0  0  0
 34 76  1  0  0  0
 37 77  1  0  0  0
 40 78  1  0  0  0
 41 79  1  0  0  0
M  END
$$$$
