4qge_ligand
  -I-interpret- 

 53 56  0  0  0  0  0  0  0  0999 V2000
   78.7560   49.2720   40.1010 C   0  0  0  0  0
   79.6020   49.4750   38.8560 C   0  0  0  0  0
   80.8530   50.0410   39.5060 C   0  0  0  0  0
   80.2960   51.0850   40.4650 C   0  0  0  0  0
   78.8440   50.6760   40.6740 C   0  0  0  0  0
   78.4010   50.7780   42.0820 N   0  0  0  0  0
   77.3230   51.4570   42.4690 C   0  0  0  0  0
   76.3960   52.1640   41.8080 N   0  0  0  0  0
   78.9370   50.3240   42.9720 N   0  0  0  0  0
   78.3250   50.6240   44.1170 C   0  0  0  0  0
   77.2670   51.3610   43.7920 C   0  0  0  0  0
   76.2940   51.9670   44.4650 C   0  0  0  0  0
   76.4440   52.0520   45.8150 O   0  0  0  0  0
   75.3550   52.6750   43.8170 N   0  0  0  0  0
   75.4090   52.7730   42.4810 C   0  0  0  0  0
   74.5580   53.5660   41.8340 N   0  0  0  0  0
   74.6610   53.8040   40.3870 C   0  0  0  0  0
   73.7390   54.9540   39.9740 C   0  0  0  0  0
   74.2790   52.5340   39.6230 C   0  0  0  0  0
   73.1090   52.1530   39.6020 O   0  0  0  0  0
   75.2670   52.0470   38.8570 N   0  0  0  0  0
   75.0960   50.9380   38.1380 C   0  0  0  0  0
   76.1610   50.4660   37.3780 C   0  0  0  0  0
   76.0420   49.2860   36.6530 C   0  0  0  0  0
   74.8540   48.5630   36.6800 C   0  0  0  0  0
   74.7510   47.4210   35.9470 O   0  0  0  0  0
   73.4740   46.7970   36.1090 C   0  0  0  0  0
   73.7810   49.0430   37.4250 C   0  0  0  0  0
   73.9000   50.2270   38.1450 C   0  0  0  0  0
   79.0978   48.4796   40.7669 H   0  0  0  0  0
   77.7440   48.9112   39.9174 H   0  0  0  0  0
   79.1523   50.1118   38.0942 H   0  0  0  0  0
   79.7613   48.5778   38.2579 H   0  0  0  0  0
   81.5524   50.4609   38.7831 H   0  0  0  0  0
   81.4498   49.2801   40.0090 H   0  0  0  0  0
   80.3819   52.0949   40.0639 H   0  0  0  0  0
   80.8507   51.1150   41.4028 H   0  0  0  0  0
   78.1556   51.3537   40.1691 H   0  0  0  0  0
   78.6306   50.3250   45.1197 H   0  0  0  0  0
   74.6071   53.1343   44.3367 H   0  0  0  0  0
   73.8116   54.0225   42.3582 H   0  0  0  0  0
   75.6898   54.0723   40.1467 H   0  0  0  0  0
   72.7087   54.6989   40.2220 H   0  0  0  0  0
   74.0288   55.8596   40.5069 H   0  0  0  0  0
   73.8253   55.1194   38.9001 H   0  0  0  0  0
   76.1631   52.5332   38.8244 H   0  0  0  0  0
   77.0960   51.0256   37.3507 H   0  0  0  0  0
   76.8832   48.9257   36.0608 H   0  0  0  0  0
   73.3251   46.5443   37.1588 H   0  0  0  0  0
   72.6919   47.4834   35.7847 H   0  0  0  0  0
   73.4355   45.8895   35.5065 H   0  0  0  0  0
   72.8428   48.4884   37.4443 H   0  0  0  0  0
   73.0513   50.6001   38.7182 H   0  0  0  0  0
  1  2  1  0  0  0
  1  5  1  0  0  0
  2  3  1  0  0  0
  3  4  1  0  0  0
  4  5  1  0  0  0
  5  6  1  0  0  0
  6  7  4  0  0  0
  6  9  4  0  0  0
  7  8  1  0  0  0
  7 11  4  0  0  0
  8 15  2  0  0  0
  9 10  4  0  0  0
 10 11  4  0  0  0
 11 12  1  0  0  0
 12 13  2  0  0  0
 12 14  1  0  0  0
 14 15  1  0  0  0
 15 16  1  0  0  0
 16 17  1  0  0  0
 17 18  1  0  0  0
 17 19  1  0  0  0
 19 20  2  0  0  0
 19 21  1  0  0  0
 21 22  1  0  0  0
 22 23  4  0  0  0
 22 29  4  0  0  0
 23 24  4  0  0  0
 24 25  4  0  0  0
 25 26  1  0  0  0
 25 28  4  0  0  0
 26 27  1  0  0  0
 28 29  4  0  0  0
  1 30  1  0  0  0
  1 31  1  0  0  0
  2 32  1  0  0  0
  2 33  1  0  0  0
  3 34  1  0  0  0
  3 35  1  0  0  0
  4 36  1  0  0  0
  4 37  1  0  0  0
  5 38  1  0  0  0
 10 39  1  0  0  0
 14 40  1  0  0  0
 16 41  1  0  0  0
 17 42  1  0  0  0
 18 43  1  0  0  0
 18 44  1  0  0  0
 18 45  1  0  0  0
 21 46  1  0  0  0
 23 47  1  0  0  0
 24 48  1  0  0  0
 27 49  1  0  0  0
 27 50  1  0  0  0
 27 51  1  0  0  0
 28 52  1  0  0  0
 29 53  1  0  0  0
M  END
$$$$
