### 
### Created by X-TOOL on Mon Sep 10 21:13:20 2018
### 

@<TRIPOS>MOLECULE
4qge_ligand
   53    56     1     0     0
SMALL
GAST_HUCK


@<TRIPOS>ATOM
      1 C4         78.7560   49.2720   40.1010 C.3       1 35O        -0.0215
      2 C1         79.6020   49.4750   38.8560 C.3       1 35O        -0.0501
      3 C2         80.8530   50.0410   39.5060 C.3       1 35O        -0.0501
      4 C3         80.2960   51.0850   40.4650 C.3       1 35O        -0.0215
      5 C5         78.8440   50.6760   40.6740 C.3       1 35O         0.0789
      6 N8         78.4010   50.7780   42.0820 N.pl3     1 35O        -0.1987
      7 C11        77.3230   51.4570   42.4690 C.2       1 35O         0.1228
      8 N13        76.3960   52.1640   41.8080 N.2       1 35O        -0.2691
      9 N9         78.9370   50.3240   42.9720 N.2       1 35O        -0.2301
     10 C10        78.3250   50.6240   44.1170 C.2       1 35O        -0.0001
     11 C12        77.2670   51.3610   43.7920 C.2       1 35O         0.0680
     12 C16        76.2940   51.9670   44.4650 C.2       1 35O         0.2103
     13 O17        76.4440   52.0520   45.8150 O.2       1 35O        -0.4063
     14 N15        75.3550   52.6750   43.8170 N.am      1 35O        -0.1816
     15 C14        75.4090   52.7730   42.4810 C.2       1 35O         0.2429
     16 N18        74.5580   53.5660   41.8340 N.pl3     1 35O        -0.2432
     17 C19        74.6610   53.8040   40.3870 C.3       1 35O         0.1387
     18 C20        73.7390   54.9540   39.9740 C.3       1 35O        -0.0229
     19 C21        74.2790   52.5340   39.6230 C.2       1 35O         0.2272
     20 O22        73.1090   52.1530   39.6020 O.2       1 35O        -0.3837
     21 N23        75.2670   52.0470   38.8570 N.am      1 35O        -0.2382
     22 C24        75.0960   50.9380   38.1380 C.ar      1 35O         0.0557
     23 C29        76.1610   50.4660   37.3780 C.ar      1 35O        -0.0490
     24 C28        76.0420   49.2860   36.6530 C.ar      1 35O        -0.0458
     25 C27        74.8540   48.5630   36.6800 C.ar      1 35O         0.0755
     26 O30        74.7510   47.4210   35.9470 O.3       1 35O        -0.3309
     27 C31        73.4740   46.7970   36.1090 C.3       1 35O         0.0561
     28 C26        73.7810   49.0430   37.4250 C.ar      1 35O        -0.0458
     29 C25        73.9000   50.2270   38.1450 C.ar      1 35O        -0.0490
     30 H1         79.1903   48.5216   40.7779 H         1 35O         0.0295
     31 H2         77.7214   48.9898   39.8561 H         1 35O         0.0295
     32 H3         79.1419   50.1888   38.1569 H         1 35O         0.0266
     33 H4         79.8014   48.5274   38.3342 H         1 35O         0.0266
     34 H5         81.5132   50.5035   38.7575 H         1 35O         0.0266
     35 H6         81.4050   49.2596   40.0489 H         1 35O         0.0266
     36 H7         80.3567   52.0905   40.0230 H         1 35O         0.0295
     37 H8         80.8451   51.0696   41.4180 H         1 35O         0.0295
     38 H9         78.1977   51.3414   40.0828 H         1 35O         0.0661
     39 H10        78.6303   50.3253   45.1187 H         1 35O         0.0658
     40 H11        74.6217   53.1253   44.3265 H         1 35O         0.2523
     41 H12        73.8042   54.0270   42.3634 H         1 35O         0.1977
     42 H13        75.6993   54.0720   40.1416 H         1 35O         0.0814
     43 H14        73.8252   55.1219   38.8903 H         1 35O         0.0278
     44 H15        74.0305   55.8686   40.5111 H         1 35O         0.0278
     45 H16        72.6988   54.6978   40.2237 H         1 35O         0.0278
     46 H17        76.1455   52.5237   38.8251 H         1 35O         0.2221
     47 H18        77.0908   51.0226   37.3509 H         1 35O         0.0478
     48 H19        76.8786   48.9277   36.0641 H         1 35O         0.0507
     49 H20        73.4339   45.8809   35.5014 H         1 35O         0.0572
     50 H21        72.6837   47.4887   35.7820 H         1 35O         0.0572
     51 H22        73.3225   46.5414   37.1681 H         1 35O         0.0572
     52 H23        72.8480   48.4914   37.4442 H         1 35O         0.0507
     53 H24        73.0559   50.5981   38.7150 H         1 35O         0.0478
@<TRIPOS>BOND
     1    1    2 1  
     2    1    5 1  
     3    2    3 1  
     4    3    4 1  
     5    4    5 1  
     6    5    6 1  
     7    6    7 1  
     8    6    9 1  
     9    7    8 1  
    10    7   11 2  
    11    8   15 2  
    12    9   10 2  
    13   10   11 1  
    14   11   12 1  
    15   12   13 2  
    16   12   14 am 
    17   14   15 am 
    18   15   16 1  
    19   16   17 1  
    20   17   18 1  
    21   17   19 1  
    22   19   20 2  
    23   19   21 am 
    24   21   22 1  
    25   22   23 ar 
    26   22   29 ar 
    27   23   24 ar 
    28   24   25 ar 
    29   25   26 1  
    30   25   28 ar 
    31   26   27 1  
    32   28   29 ar 
    33    1   30 1  
    34    1   31 1  
    35    2   32 1  
    36    2   33 1  
    37    3   34 1  
    38    3   35 1  
    39    4   36 1  
    40    4   37 1  
    41    5   38 1  
    42   10   39 1  
    43   14   40 1  
    44   16   41 1  
    45   17   42 1  
    46   18   43 1  
    47   18   44 1  
    48   18   45 1  
    49   21   46 1  
    50   23   47 1  
    51   24   48 1  
    52   27   49 1  
    53   27   50 1  
    54   27   51 1  
    55   28   52 1  
    56   29   53 1  
@<TRIPOS>SUBSTRUCTURE
     1 35O         1

