### 
### Created by X-TOOL on Mon Sep 10 21:13:03 2018
### 

@<TRIPOS>MOLECULE
3ies_ligand
   63    68     1     0     0
SMALL
GAST_HUCK


@<TRIPOS>ATOM
      1 P         -29.9490   11.6760   -8.2560 P.3       1 M24         0.2885
      2 N1        -30.5710    6.5980  -16.9790 N.ar      1 M24        -0.2698
      3 C2        -30.8850    7.8810  -17.2360 C.ar      1 M24         0.0533
      4 N3        -30.9680    8.8080  -16.2720 N.ar      1 M24        -0.2714
      5 C4        -30.7600    8.4780  -14.9700 C.ar      1 M24         0.1613
      6 C5        -30.4320    7.1890  -14.6300 C.ar      1 M24         0.1045
      7 C6        -30.3230    6.1970  -15.7140 C.ar      1 M24         0.1298
      8 N6        -30.0150    4.8960  -15.4330 N.pl3     1 M24        -0.3152
      9 N7        -30.2800    7.1350  -13.2780 N.2       1 M24        -0.2958
     10 C8        -30.4860    8.3880  -12.8200 C.2       1 M24         0.1123
     11 N9        -30.7910    9.1840  -13.8450 N.pl3     1 M24        -0.1919
     12 C1'       -31.0760   10.6270  -13.7640 C.3       1 M24         0.2010
     13 O1P       -28.5000   12.1110   -8.0910 O.co2     1 M24        -0.6134
     14 C2'       -32.5700   10.9110  -13.8360 C.3       1 M24         0.1385
     15 O2'       -32.7170   12.1550  -14.5040 O.3       1 M24        -0.3836
     16 C24       -29.3110    9.0710   -8.7260 C.2       1 M24         0.2990
     17 O25       -28.7160    9.3800   -9.7440 O.2       1 M24        -0.3488
     18 C26       -29.3490    7.6750   -8.1350 C.ar      1 M24         0.0678
     19 C27       -29.8300    7.5370   -6.8320 C.ar      1 M24        -0.0405
     20 C28       -29.9080    6.2970   -6.2210 C.ar      1 M24        -0.0556
     21 C29       -29.4780    5.1740   -6.8950 C.ar      1 M24        -0.0482
     22 O2P       -30.0290   10.0780   -8.0060 O.3       1 M24        -0.1490
     23 C3'       -32.9830   11.1000  -12.3980 C.3       1 M24         0.1149
     24 O3'       -34.1040   11.9960  -12.3110 O.3       1 M24        -0.3864
     25 C30       -29.0160    5.3030   -8.1840 C.ar      1 M24         0.0099
     26 C31       -28.9310    6.5500   -8.8140 C.ar      1 M24        -0.0309
     27 C32       -28.5770    4.0720   -8.8740 C.2       1 M24         0.1227
     28 N33       -28.1660    4.0820  -10.1370 N.2       1 M24        -0.1112
     29 O34       -27.8380    2.8190  -10.4220 O.3       1 M24        -0.1324
     30 C35       -28.0300    2.0150   -9.3780 C.2       1 M24         0.2390
     31 N36       -28.4910    2.7990   -8.3740 N.2       1 M24        -0.2631
     32 C37       -27.8070    0.5730   -9.4060 C.ar      1 M24         0.0842
     33 C38       -27.2860   -0.0490  -10.5170 C.ar      1 M24        -0.0446
     34 C39       -27.1230   -1.4290  -10.4870 C.ar      1 M24        -0.0607
     35 O3P       -31.0030   12.1060   -7.2900 O.co2     1 M24        -0.6134
     36 C4'       -31.7240   11.6650  -11.7510 C.3       1 M24         0.1189
     37 O4'       -30.6180   11.1190  -12.5050 O.3       1 M24        -0.3364
     38 C40       -27.5140   -2.1450   -9.3600 C.ar      1 M24        -0.0598
     39 C41       -28.0770   -1.4940   -8.2690 C.ar      1 M24        -0.0226
     40 C42       -28.2190   -0.1240   -8.3000 C.ar      1 M24         0.1530
     41 F43       -28.7410    0.5880   -7.2920 F         1 M24        -0.1771
     42 C5'       -31.6050   11.2750  -10.2860 C.3       1 M24         0.1127
     43 O5'       -30.3700   11.8180   -9.8030 O.3       1 M24        -0.2483
     44 H1        -31.0780    8.1756  -18.2612 H         1 M24         0.0996
     45 H2        -29.8289    4.6091  -14.4614 H         1 M24         0.1820
     46 H3        -29.9689    4.2020  -16.1927 H         1 M24         0.1820
     47 H4        -30.4144    8.6991  -11.7788 H         1 M24         0.1349
     48 H5        -30.5605   11.1459  -14.5856 H         1 M24         0.0996
     49 H6        -33.1328   10.1072  -14.3331 H         1 M24         0.0676
     50 H7        -33.6399   12.3705  -14.5702 H         1 M24         0.2101
     51 H8        -30.1489    8.4184   -6.2875 H         1 M24         0.0669
     52 H9        -30.3057    6.2096   -5.2164 H         1 M24         0.0629
     53 H10       -29.5037    4.2022   -6.4154 H         1 M24         0.0659
     54 H11       -33.2549   10.1391  -11.9367 H         1 M24         0.0648
     55 H12       -34.8352   11.6348  -12.7982 H         1 M24         0.2100
     56 H13       -28.5417    6.6303   -9.8225 H         1 M24         0.0679
     57 H14       -27.0092    0.5235  -11.3949 H         1 M24         0.0652
     58 H15       -26.6932   -1.9451  -11.3379 H         1 M24         0.0594
     59 H16       -31.7285   12.7624  -11.8267 H         1 M24         0.0651
     60 H17       -27.3783   -3.2201   -9.3327 H         1 M24         0.0639
     61 H18       -28.4012   -2.0585   -7.4022 H         1 M24         0.0614
     62 H19       -31.5996   10.1795  -10.1866 H         1 M24         0.0647
     63 H20       -32.4485   11.6908   -9.7154 H         1 M24         0.0647
@<TRIPOS>BOND
     1    1   13 ar 
     2    1   22 1  
     3    1   35 ar 
     4   43    1 1  
     5    3    2 ar 
     6    7    2 ar 
     7    4    3 ar 
     8    5    4 ar 
     9    5    6 ar 
    10   11    5 1  
    11    6    7 ar 
    12    9    6 1  
    13    7    8 1  
    14   10    9 2  
    15   11   10 1  
    16   12   11 1  
    17   12   14 1  
    18   37   12 1  
    19   14   15 1  
    20   23   14 1  
    21   16   17 2  
    22   16   18 1  
    23   22   16 1  
    24   18   19 ar 
    25   18   26 ar 
    26   19   20 ar 
    27   20   21 ar 
    28   25   21 ar 
    29   23   24 1  
    30   36   23 1  
    31   26   25 ar 
    32   25   27 1  
    33   27   28 2  
    34   27   31 1  
    35   28   29 1  
    36   30   29 1  
    37   31   30 2  
    38   30   32 1  
    39   32   33 ar 
    40   32   40 ar 
    41   33   34 ar 
    42   34   38 ar 
    43   36   37 1  
    44   42   36 1  
    45   39   38 ar 
    46   40   39 ar 
    47   40   41 1  
    48   42   43 1  
    49    3   44 1  
    50    8   45 1  
    51    8   46 1  
    52   10   47 1  
    53   12   48 1  
    54   14   49 1  
    55   15   50 1  
    56   19   51 1  
    57   20   52 1  
    58   21   53 1  
    59   23   54 1  
    60   24   55 1  
    61   26   56 1  
    62   33   57 1  
    63   34   58 1  
    64   36   59 1  
    65   38   60 1  
    66   39   61 1  
    67   42   62 1  
    68   42   63 1  
@<TRIPOS>SUBSTRUCTURE
     1 M24         1

