4zo5_ligand
  -I-interpret- 

 61 65  0  0  0  0  0  0  0  0999 V2000
   -0.2320   -4.6420   23.4190 C   0  0  0  0  0
   -1.5160   -5.0720   23.7010 C   0  0  0  0  0
   -0.7760   -5.8070   25.8770 C   0  0  0  0  0
   -5.3250   -6.5520   24.3840 C   0  0  0  0  0
   -4.7540   -5.0900   21.9500 C   0  0  0  0  0
   -5.0200   -3.5930   21.9940 C   0  0  0  0  0
   -6.3990   -5.8370   24.8900 C   0  0  0  0  0
   -7.6120   -6.4710   25.0990 C   0  0  0  0  0
   -6.6510   -8.5440   24.3190 C   0  0  0  0  0
   -9.7620   -7.8780   25.9440 C   0  0  0  0  0
   -6.1950   -3.1850   21.2610 N   0  0  0  0  0
   -7.3910   -2.8710   21.8800 C   0  0  0  0  0
   -8.2500   -2.4900   20.7700 C   0  0  0  0  0
   -7.5740   -2.6360   19.5890 C   0  0  0  0  0
    0.5030   -5.3720   25.5900 C   0  0  0  0  0
   -2.5110   -4.9010   22.7360 N   0  0  0  0  0
   -3.3990   -6.6120   26.3350 O   0  0  0  0  0
    0.7670   -4.7880   24.3670 C   0  0  0  0  0
   -1.7790   -5.6460   24.9350 C   0  0  0  0  0
   -3.7120   -5.3120   23.0040 C   0  0  0  0  0
   -4.0850   -5.9040   24.2110 N   0  0  0  0  0
   -3.1590   -6.1000   25.2400 C   0  0  0  0  0
   -7.7300   -7.8310   24.8250 C   0  0  0  0  0
   -5.4440   -7.9060   24.0940 C   0  0  0  0  0
   -8.9130   -8.5450   25.0160 O   0  0  0  0  0
   -6.2140   -3.0870   19.8780 C   0  0  0  0  0
   -9.5620   -2.0690   20.8170 C   0  0  0  0  0
  -10.1630   -1.7730   19.6020 C   0  0  0  0  0
   -9.4780   -1.9090   18.4110 C   0  0  0  0  0
   -8.1610   -2.3530   18.3720 C   0  0  0  0  0
   -5.3280   -3.2700   19.0440 O   0  0  0  0  0
   -7.7510   -2.9430   23.0560 O   0  0  0  0  0
   -7.4160   -2.5500   17.1940 O   0  0  0  0  0
   -8.0540   -2.0180   16.0060 C   0  0  0  0  0
   -6.9830   -1.5880   15.0300 C   0  0  0  0  0
   -8.9370   -3.0220   15.2880 C   0  0  0  0  0
   -0.0070   -4.1894   22.4533 H   0  0  0  0  0
   -0.9947   -6.2735   26.8375 H   0  0  0  0  0
   -4.4190   -5.4185   20.9662 H   0  0  0  0  0
   -5.6562   -5.6727   22.1357 H   0  0  0  0  0
   -4.1640   -3.0983   21.5350 H   0  0  0  0  0
   -5.1795   -3.3230   23.0379 H   0  0  0  0  0
   -6.2890   -4.7779   25.1229 H   0  0  0  0  0
   -8.4676   -5.9100   25.4750 H   0  0  0  0  0
   -6.7550   -9.6065   24.0990 H   0  0  0  0  0
   -9.2491   -7.7841   26.9012 H   0  0  0  0  0
  -10.0069   -6.8866   25.5628 H   0  0  0  0  0
  -10.6777   -8.4544   26.0760 H   0  0  0  0  0
    1.2995   -5.4891   26.3248 H   0  0  0  0  0
    1.7748   -4.4373   24.1448 H   0  0  0  0  0
   -4.5950   -8.4598   23.6933 H   0  0  0  0  0
  -10.0996   -1.9736   21.7604 H   0  0  0  0  0
  -11.1963   -1.4263   19.5875 H   0  0  0  0  0
   -9.9828   -1.6619   17.4771 H   0  0  0  0  0
   -8.6831   -1.1922   16.3382 H   0  0  0  0  0
   -6.3601   -0.8212   15.4906 H   0  0  0  0  0
   -6.3673   -2.4479   14.7661 H   0  0  0  0  0
   -7.4519   -1.1859   14.1319 H   0  0  0  0  0
   -8.3359   -3.8774   14.9796 H   0  0  0  0  0
   -9.7273   -3.3553   15.9606 H   0  0  0  0  0
   -9.3797   -2.5519   14.4099 H   0  0  0  0  0
  2  1  4  0  0  0
  1 18  4  0  0  0
 16  2  1  0  0  0
 19  2  4  0  0  0
  3 15  4  0  0  0
 19  3  4  0  0  0
  7  4  4  0  0  0
  4 21  1  0  0  0
 24  4  4  0  0  0
  5  6  1  0  0  0
 20  5  1  0  0  0
  6 11  1  0  0  0
  8  7  4  0  0  0
 23  8  4  0  0  0
 23  9  4  0  0  0
  9 24  4  0  0  0
 25 10  1  0  0  0
 11 12  1  0  0  0
 11 26  1  0  0  0
 12 13  1  0  0  0
 12 32  2  0  0  0
 14 13  4  0  0  0
 13 27  4  0  0  0
 26 14  1  0  0  0
 14 30  4  0  0  0
 15 18  4  0  0  0
 20 16  2  0  0  0
 22 17  2  0  0  0
 22 19  1  0  0  0
 21 20  1  0  0  0
 21 22  1  0  0  0
 23 25  1  0  0  0
 26 31  2  0  0  0
 27 28  4  0  0  0
 28 29  4  0  0  0
 29 30  4  0  0  0
 30 33  1  0  0  0
 33 34  1  0  0  0
 34 35  1  0  0  0
 34 36  1  0  0  0
  1 37  1  0  0  0
  3 38  1  0  0  0
  5 39  1  0  0  0
  5 40  1  0  0  0
  6 41  1  0  0  0
  6 42  1  0  0  0
  7 43  1  0  0  0
  8 44  1  0  0  0
  9 45  1  0  0  0
 10 46  1  0  0  0
 10 47  1  0  0  0
 10 48  1  0  0  0
 15 49  1  0  0  0
 18 50  1  0  0  0
 24 51  1  0  0  0
 27 52  1  0  0  0
 28 53  1  0  0  0
 29 54  1  0  0  0
 34 55  1  0  0  0
 35 56  1  0  0  0
 35 57  1  0  0  0
 35 58  1  0  0  0
 36 59  1  0  0  0
 36 60  1  0  0  0
 36 61  1  0  0  0
M  END
$$$$
