### 
### Created by X-TOOL on Mon Sep 10 21:13:25 2018
### 

@<TRIPOS>MOLECULE
4zo5_ligand
   61    65     1     0     0
SMALL
GAST_HUCK


@<TRIPOS>ATOM
      1 C2         -0.2320   -4.6420   23.4190 C.ar      1 4Q0        -0.0536
      2 C3         -1.5160   -5.0720   23.7010 C.ar      1 4Q0         0.0141
      3 C5         -0.7760   -5.8070   25.8770 C.ar      1 4Q0        -0.0500
      4 C9         -5.3250   -6.5520   24.3840 C.ar      1 4Q0         0.1000
      5 C10        -4.7540   -5.0900   21.9500 C.3       1 4Q0         0.0654
      6 C11        -5.0200   -3.5930   21.9940 C.3       1 4Q0         0.0759
      7 C12        -6.3990   -5.8370   24.8900 C.ar      1 4Q0        -0.0374
      8 C13        -7.6120   -6.4710   25.0990 C.ar      1 4Q0        -0.0407
      9 C15        -6.6510   -8.5440   24.3190 C.ar      1 4Q0        -0.0407
     10 C18        -9.7620   -7.8780   25.9440 C.3       1 4Q0         0.0571
     11 N19        -6.1950   -3.1850   21.2610 N.am      1 4Q0        -0.1834
     12 C20        -7.3910   -2.8710   21.8800 C.2       1 4Q0         0.2373
     13 C21        -8.2500   -2.4900   20.7700 C.ar      1 4Q0         0.0649
     14 C22        -7.5740   -2.6360   19.5890 C.ar      1 4Q0         0.1013
     15 C           0.5030   -5.3720   25.5900 C.ar      1 4Q0        -0.0653
     16 N          -2.5110   -4.9010   22.7360 N.2       1 4Q0        -0.3033
     17 O          -3.3990   -6.6120   26.3350 O.2       1 4Q0        -0.3771
     18 C1          0.7670   -4.7880   24.3670 C.ar      1 4Q0        -0.0665
     19 C4         -1.7790   -5.6460   24.9350 C.ar      1 4Q0         0.0642
     20 C6         -3.7120   -5.3120   23.0040 C.2       1 4Q0         0.1650
     21 N7         -4.0850   -5.9040   24.2110 N.am      1 4Q0        -0.1383
     22 C8         -3.1590   -6.1000   25.2400 C.2       1 4Q0         0.2576
     23 C14        -7.7300   -7.8310   24.8250 C.ar      1 4Q0         0.0801
     24 C16        -5.4440   -7.9060   24.0940 C.ar      1 4Q0        -0.0374
     25 O17        -8.9130   -8.5450   25.0160 O.3       1 4Q0        -0.3280
     26 C23        -6.2140   -3.0870   19.8780 C.2       1 4Q0         0.2342
     27 C24        -9.5620   -2.0690   20.8170 C.ar      1 4Q0        -0.0478
     28 C25       -10.1630   -1.7730   19.6020 C.ar      1 4Q0        -0.0605
     29 C26        -9.4780   -1.9090   18.4110 C.ar      1 4Q0        -0.0225
     30 C27        -8.1610   -2.3530   18.3720 C.ar      1 4Q0         0.1176
     31 O28        -5.3280   -3.2700   19.0440 O.2       1 4Q0        -0.3736
     32 O29        -7.7510   -2.9430   23.0560 O.2       1 4Q0        -0.3673
     33 O30        -7.4160   -2.5500   17.1940 O.3       1 4Q0        -0.3089
     34 C31        -8.0540   -2.0180   16.0060 C.3       1 4Q0         0.0775
     35 C32        -6.9830   -1.5880   15.0300 C.3       1 4Q0        -0.0342
     36 C33        -8.9370   -3.0220   15.2880 C.3       1 4Q0        -0.0342
     37 H1         -0.0082   -4.1919   22.4586 H         1 4Q0         0.0556
     38 H2         -0.9935   -6.2710   26.8323 H         1 4Q0         0.0643
     39 H3         -4.3778   -5.3900   20.9609 H         1 4Q0         0.0586
     40 H4         -5.6688   -5.6553   22.1813 H         1 4Q0         0.0586
     41 H5         -4.1487   -3.0739   21.5681 H         1 4Q0         0.0606
     42 H6         -5.1468   -3.2947   23.0451 H         1 4Q0         0.0606
     43 H7         -6.2896   -4.7837   25.1216 H         1 4Q0         0.0524
     44 H8         -8.4629   -5.9131   25.4729 H         1 4Q0         0.0518
     45 H9         -6.7544   -9.6007   24.1003 H         1 4Q0         0.0518
     46 H10       -10.6865   -8.4587   26.0780 H         1 4Q0         0.0573
     47 H11       -10.0100   -6.8773   25.5605 H         1 4Q0         0.0573
     48 H12        -9.2456   -7.7827   26.9105 H         1 4Q0         0.0573
     49 H13         1.2951   -5.4884   26.3208 H         1 4Q0         0.0554
     50 H14         1.7693   -4.4392   24.1460 H         1 4Q0         0.0627
     51 H15        -4.5996   -8.4567   23.6955 H         1 4Q0         0.0524
     52 H16       -10.0966   -1.9741   21.7552 H         1 4Q0         0.0592
     53 H17       -11.1906   -1.4282   19.5876 H         1 4Q0         0.0635
     54 H18        -9.9800   -1.6632   17.4822 H         1 4Q0         0.0590
     55 H19        -8.6652   -1.1506   16.2958 H         1 4Q0         0.0648
     56 H20        -7.4550   -1.1820   14.1232 H         1 4Q0         0.0258
     57 H21        -6.3609   -2.4550   14.7628 H         1 4Q0         0.0258
     58 H22        -6.3537   -0.8141   15.4937 H         1 4Q0         0.0258
     59 H23        -9.3844   -2.5487   14.4015 H         1 4Q0         0.0258
     60 H24        -9.7351   -3.3591   15.9658 H         1 4Q0         0.0258
     61 H25        -8.3315   -3.8858   14.9762 H         1 4Q0         0.0258
@<TRIPOS>BOND
     1    2    1 ar 
     2    1   18 ar 
     3   16    2 1  
     4   19    2 ar 
     5    3   15 ar 
     6   19    3 ar 
     7    7    4 ar 
     8    4   21 1  
     9   24    4 ar 
    10    5    6 1  
    11   20    5 1  
    12    6   11 1  
    13    8    7 ar 
    14   23    8 ar 
    15   23    9 ar 
    16    9   24 ar 
    17   25   10 1  
    18   11   12 am 
    19   11   26 am 
    20   12   13 1  
    21   12   32 2  
    22   14   13 ar 
    23   13   27 ar 
    24   26   14 1  
    25   14   30 ar 
    26   15   18 ar 
    27   20   16 2  
    28   22   17 2  
    29   22   19 1  
    30   21   20 1  
    31   21   22 am 
    32   23   25 1  
    33   26   31 2  
    34   27   28 ar 
    35   28   29 ar 
    36   29   30 ar 
    37   30   33 1  
    38   33   34 1  
    39   34   35 1  
    40   34   36 1  
    41    1   37 1  
    42    3   38 1  
    43    5   39 1  
    44    5   40 1  
    45    6   41 1  
    46    6   42 1  
    47    7   43 1  
    48    8   44 1  
    49    9   45 1  
    50   10   46 1  
    51   10   47 1  
    52   10   48 1  
    53   15   49 1  
    54   18   50 1  
    55   24   51 1  
    56   27   52 1  
    57   28   53 1  
    58   29   54 1  
    59   34   55 1  
    60   35   56 1  
    61   35   57 1  
    62   35   58 1  
    63   36   59 1  
    64   36   60 1  
    65   36   61 1  
@<TRIPOS>SUBSTRUCTURE
     1 4Q0         1

