4ido_ligand
  -I-interpret- 

 42 44  0  0  0  0  0  0  0  0999 V2000
  -25.6840   -3.6380   42.1840 P   0  0  0  0  0
  -26.1410   -4.4380   40.9640 O   0  0  0  0  0
  -24.7740   -4.4410   43.0660 O   0  0  0  0  0
  -26.8460   -3.1270   42.9600 O   0  0  0  0  0
  -24.8370   -2.3320   41.7550 O   0  0  0  0  0
  -24.7340   -1.7370   40.2590 P   0  0  0  0  0
  -24.0710   -2.7580   39.3640 O   0  0  0  0  0
  -26.0680   -1.3110   39.7010 O   0  0  0  0  0
  -23.7300   -0.5030   40.5050 O   0  0  0  0  0
  -23.8490    0.3140   41.6710 C   0  0  0  0  0
  -22.8160    1.4350   41.6370 C   0  0  0  0  0
  -21.5410    0.8660   41.9130 O   0  0  0  0  0
  -22.6600    2.1400   40.2950 C   0  0  0  0  0
  -22.6050    3.5610   40.5160 O   0  0  0  0  0
  -21.3050    1.7010   39.7620 C   0  0  0  0  0
  -20.6530    2.7260   39.0230 O   0  0  0  0  0
  -20.5580    1.4810   41.0530 C   0  0  0  0  0
  -19.4940    0.4900   40.9540 N   0  0  0  0  0
  -19.3630   -0.5080   40.0540 C   0  0  0  0  0
  -18.2680   -1.2430   40.3690 N   0  0  0  0  0
  -17.7200   -0.7150   41.4920 C   0  0  0  0  0
  -16.5710   -1.0090   42.3650 C   0  0  0  0  0
  -15.8450   -1.9850   42.0890 O   0  0  0  0  0
  -16.3530   -0.2190   43.4440 N   0  0  0  0  0
  -17.1530    0.8240   43.7380 C   0  0  0  0  0
  -16.8860    1.5650   44.8300 N   0  0  0  0  0
  -18.2370    1.1470   42.9880 N   0  0  0  0  0
  -18.5480    0.4120   41.8850 C   0  0  0  0  0
  -25.3722   -4.7543   40.4838 H   0  0  0  0  0
  -24.0312   -4.7622   42.5496 H   0  0  0  0  0
  -23.2255   -3.0116   39.7414 H   0  0  0  0  0
  -23.6797   -0.3001   42.5555 H   0  0  0  0  0
  -24.8475    0.7501   41.7004 H   0  0  0  0  0
  -23.1662    2.1692   42.3625 H   0  0  0  0  0
  -23.4804    1.9057   39.6166 H   0  0  0  0  0
  -22.5067    4.0111   39.6738 H   0  0  0  0  0
  -21.3671    0.8494   39.0845 H   0  0  0  0  0
  -19.8055    2.4026   38.7087 H   0  0  0  0  0
  -20.1192    2.4250   41.3760 H   0  0  0  0  0
  -20.0292   -0.6927   39.2113 H   0  0  0  0  0
  -16.0875    1.3332   45.4209 H   0  0  0  0  0
  -18.8197    1.9418   43.2511 H   0  0  0  0  0
  1  2  1  0  0  0
  1  3  1  0  0  0
  1  4  2  0  0  0
  1  5  1  0  0  0
  5  6  1  0  0  0
  6  7  1  0  0  0
  6  8  2  0  0  0
  6  9  1  0  0  0
  9 10  1  0  0  0
 10 11  1  0  0  0
 11 12  1  0  0  0
 11 13  1  0  0  0
 12 17  1  0  0  0
 13 14  1  0  0  0
 13 15  1  0  0  0
 15 16  1  0  0  0
 15 17  1  0  0  0
 17 18  1  0  0  0
 18 19  4  0  0  0
 18 28  4  0  0  0
 19 20  4  0  0  0
 20 21  4  0  0  0
 21 22  1  0  0  0
 21 28  4  0  0  0
 22 23  2  0  0  0
 22 24  1  0  0  0
 24 25  4  0  0  0
 25 26  2  0  0  0
 25 27  1  0  0  0
 27 28  1  0  0  0
  2 29  1  0  0  0
  3 30  1  0  0  0
  7 31  1  0  0  0
 10 32  1  0  0  0
 10 33  1  0  0  0
 11 34  1  0  0  0
 13 35  1  0  0  0
 14 36  1  0  0  0
 15 37  1  0  0  0
 16 38  1  0  0  0
 17 39  1  0  0  0
 19 40  1  0  0  0
 26 41  1  0  0  0
 27 42  1  0  0  0
M  END
$$$$
