### 
### Created by X-TOOL on Mon Sep 10 21:13:14 2018
### 

@<TRIPOS>MOLECULE
4ido_ligand
   41    43     1     0     0
SMALL
GAST_HUCK


@<TRIPOS>ATOM
      1 PB        -25.6840   -3.6380   42.1840 P.3       1 GDP         0.2069
      2 O1B       -26.1410   -4.4380   40.9640 O.co2     1 GDP        -0.5891
      3 O2B       -24.7740   -4.4410   43.0660 O.co2     1 GDP        -0.5891
      4 O3B       -26.8460   -3.1270   42.9600 O.co2     1 GDP        -0.5891
      5 O3A       -24.8370   -2.3320   41.7550 O.3       1 GDP        -0.1548
      6 PA        -24.7340   -1.7370   40.2590 P.3       1 GDP         0.3276
      7 O1A       -24.0710   -2.7580   39.3640 O.co2     1 GDP        -0.5556
      8 O2A       -26.0680   -1.3110   39.7010 O.co2     1 GDP        -0.5556
      9 O5'       -23.7300   -0.5030   40.5050 O.3       1 GDP        -0.2436
     10 C5'       -23.8490    0.3140   41.6710 C.3       1 GDP         0.1132
     11 C4'       -22.8160    1.4350   41.6370 C.3       1 GDP         0.1190
     12 O4'       -21.5410    0.8660   41.9130 O.3       1 GDP        -0.3347
     13 C3'       -22.6600    2.1400   40.2950 C.3       1 GDP         0.1151
     14 O3'       -22.6050    3.5610   40.5160 O.3       1 GDP        -0.3864
     15 C2'       -21.3050    1.7010   39.7620 C.3       1 GDP         0.1407
     16 O2'       -20.6530    2.7260   39.0230 O.3       1 GDP        -0.3835
     17 C1'       -20.5580    1.4810   41.0530 C.3       1 GDP         0.2218
     18 N9        -19.4940    0.4900   40.9540 N.pl3     1 GDP        -0.0954
     19 C8        -19.3630   -0.5080   40.0540 C.2       1 GDP         0.1855
     20 N7        -18.2680   -1.2430   40.3690 N.2       1 GDP        -0.1929
     21 C5        -17.7200   -0.7150   41.4920 C.2       1 GDP         0.2558
     22 C6        -16.5710   -1.0090   42.3650 C.2       1 GDP         0.2628
     23 O6        -15.8450   -1.9850   42.0890 O.2       1 GDP        -0.3594
     24 N1        -16.3530   -0.2190   43.4440 N.am      1 GDP        -0.2478
     25 C2        -17.1530    0.8240   43.7380 C.cat     1 GDP         0.2041
     26 N2        -16.8860    1.5650   44.8300 N.pl3     1 GDP        -0.3327
     27 N3        -18.2370    1.1470   42.9880 N.pl3     1 GDP        -0.1901
     28 C4        -18.5480    0.4120   41.8850 C.2       1 GDP         0.3268
     29 H1        -23.6848   -0.3041   42.5660 H         1 GDP         0.0648
     30 H2        -24.8579    0.7508   41.7071 H         1 GDP         0.0648
     31 H3        -23.0815    2.1780   42.4035 H         1 GDP         0.0651
     32 H4        -23.4750    1.8783   39.6041 H         1 GDP         0.0648
     33 H5        -22.5077    4.0064   39.6826 H         1 GDP         0.2100
     34 H6        -21.3809    0.7858   39.1565 H         1 GDP         0.0677
     35 H7        -20.5171    3.4812   39.5832 H         1 GDP         0.2101
     36 H8        -20.1725    2.4308   41.4522 H         1 GDP         0.1021
     37 H9        -20.0286   -0.6926   39.2121 H         1 GDP         0.1823
     38 H10       -15.5747   -0.4162   44.0401 H         1 GDP         0.1819
     39 H11       -17.4881    2.3659   45.0687 H         1 GDP         0.1774
     40 H12       -16.0797    1.3310   45.4267 H         1 GDP         0.1774
     41 H13       -18.8254    1.9496   43.2537 H         1 GDP         0.2519
@<TRIPOS>BOND
     1    1    2 ar 
     2    1    3 ar 
     3    1    4 ar 
     4    1    5 1  
     5    5    6 1  
     6    6    7 ar 
     7    6    8 ar 
     8    6    9 1  
     9    9   10 1  
    10   10   11 1  
    11   11   12 1  
    12   11   13 1  
    13   12   17 1  
    14   13   14 1  
    15   13   15 1  
    16   15   16 1  
    17   15   17 1  
    18   17   18 1  
    19   18   19 1  
    20   18   28 1  
    21   19   20 2  
    22   20   21 1  
    23   21   22 1  
    24   21   28 2  
    25   22   23 2  
    26   22   24 am 
    27   24   25 ar 
    28   25   26 ar 
    29   25   27 ar 
    30   27   28 1  
    31   10   29 1  
    32   10   30 1  
    33   11   31 1  
    34   13   32 1  
    35   14   33 1  
    36   15   34 1  
    37   16   35 1  
    38   17   36 1  
    39   19   37 1  
    40   24   38 1  
    41   26   39 1  
    42   26   40 1  
    43   27   41 1  
@<TRIPOS>SUBSTRUCTURE
     1 GDP         1

