### 
### Created by X-TOOL on Mon Sep 10 21:12:51 2018
### 

@<TRIPOS>MOLECULE
1ua4_ligand
   35    37     1     0     0
SMALL
GAST_HUCK


@<TRIPOS>ATOM
      1 P          19.3020   18.8000    8.2670 P.3       1 AMP         0.2008
      2 O1P        20.5460   19.0390    8.9920 O.co2     1 AMP        -0.5537
      3 O2P        19.2500   19.5300    6.9750 O.co2     1 AMP        -0.5537
      4 O3P        18.0840   19.0870    9.1180 O.co2     1 AMP        -0.5537
      5 O5         19.3570   17.1880    7.9180 O.3       1 AMP        -0.2734
      6 C5         18.2480   16.5440    7.2100 C.3       1 AMP         0.1072
      7 C4         18.2510   15.1230    7.8030 C.3       1 AMP         0.1182
      8 O4         17.1430   14.2550    7.3520 O.3       1 AMP        -0.3365
      9 C3         19.6810   14.2410    7.5470 C.3       1 AMP         0.1149
     10 O3         20.6300   14.5090    8.6710 O.3       1 AMP        -0.3864
     11 C2         19.0940   12.7580    7.4710 C.3       1 AMP         0.1385
     12 O2         19.1060   12.1380    8.7400 O.3       1 AMP        -0.3836
     13 C1         17.5580   12.9210    7.0420 C.3       1 AMP         0.2010
     14 N9         17.3040   12.5400    5.6290 N.pl3     1 AMP        -0.1919
     15 C8         17.6880   13.1670    4.4320 C.2       1 AMP         0.1123
     16 N7         17.3030   12.5620    3.2790 N.2       1 AMP        -0.2958
     17 C5         16.6210   11.4610    3.8160 C.ar      1 AMP         0.1045
     18 C6         15.9440   10.3760    3.1840 C.ar      1 AMP         0.1298
     19 N6         15.9110   10.3180    1.8050 N.pl3     1 AMP        -0.3152
     20 N1         15.3610    9.4360    4.0430 N.ar      1 AMP        -0.2698
     21 C2         15.4160    9.5250    5.3900 C.ar      1 AMP         0.0533
     22 N3         16.0350   10.5120    6.0700 N.ar      1 AMP        -0.2714
     23 C4         16.6080   11.4370    5.2350 C.ar      1 AMP         0.1613
     24 H1         18.4288   16.5219    6.1252 H         1 AMP         0.0639
     25 H2         17.2962   17.0568    7.4127 H         1 AMP         0.0639
     26 H3         18.1398   15.2561    8.8892 H         1 AMP         0.0650
     27 H4         20.1675   14.5123    6.5985 H         1 AMP         0.0648
     28 H5         20.8282   15.4376    8.7021 H         1 AMP         0.2100
     29 H6         19.6554   12.1541    6.7429 H         1 AMP         0.0676
     30 H7         19.9988   12.0949    9.0617 H         1 AMP         0.2101
     31 H8         16.9642   12.2355    7.6645 H         1 AMP         0.0996
     32 H9         18.2648   14.0907    4.4290 H         1 AMP         0.1349
     33 H10        15.4262    9.5410    1.3337 H         1 AMP         0.1820
     34 H11        16.3712   11.0517    1.2475 H         1 AMP         0.1820
     35 H12        14.9275    8.7472    5.9658 H         1 AMP         0.0996
@<TRIPOS>BOND
     1    1    2 ar 
     2    1    3 ar 
     3    1    4 ar 
     4    1    5 1  
     5    5    6 1  
     6    6    7 1  
     7    7    8 1  
     8    7    9 1  
     9    8   13 1  
    10    9   10 1  
    11    9   11 1  
    12   11   12 1  
    13   11   13 1  
    14   13   14 1  
    15   14   15 1  
    16   14   23 1  
    17   15   16 2  
    18   16   17 1  
    19   17   18 ar 
    20   17   23 ar 
    21   18   19 1  
    22   18   20 ar 
    23   20   21 ar 
    24   21   22 ar 
    25   22   23 ar 
    26    6   24 1  
    27    6   25 1  
    28    7   26 1  
    29    9   27 1  
    30   10   28 1  
    31   11   29 1  
    32   12   30 1  
    33   13   31 1  
    34   15   32 1  
    35   19   33 1  
    36   19   34 1  
    37   21   35 1  
@<TRIPOS>SUBSTRUCTURE
     1 AMP         1

