1ua4_ligand
  -I-interpret- 

 37 39  0  0  0  0  0  0  0  0999 V2000
   19.3020   18.8000    8.2670 P   0  0  0  0  0
   20.5460   19.0390    8.9920 O   0  0  0  0  0
   19.2500   19.5300    6.9750 O   0  0  0  0  0
   18.0840   19.0870    9.1180 O   0  0  0  0  0
   19.3570   17.1880    7.9180 O   0  0  0  0  0
   18.2480   16.5440    7.2100 C   0  0  0  0  0
   18.2510   15.1230    7.8030 C   0  0  0  0  0
   17.1430   14.2550    7.3520 O   0  0  0  0  0
   19.6810   14.2410    7.5470 C   0  0  0  0  0
   20.6300   14.5090    8.6710 O   0  0  0  0  0
   19.0940   12.7580    7.4710 C   0  0  0  0  0
   19.1060   12.1380    8.7400 O   0  0  0  0  0
   17.5580   12.9210    7.0420 C   0  0  0  0  0
   17.3040   12.5400    5.6290 N   0  0  0  0  0
   17.6880   13.1670    4.4320 C   0  0  0  0  0
   17.3030   12.5620    3.2790 N   0  0  0  0  0
   16.6210   11.4610    3.8160 C   0  0  0  0  0
   15.9440   10.3760    3.1840 C   0  0  0  0  0
   15.9110   10.3180    1.8050 N   0  0  0  0  0
   15.3610    9.4360    4.0430 N   0  0  0  0  0
   15.4160    9.5250    5.3900 C   0  0  0  0  0
   16.0350   10.5120    6.0700 N   0  0  0  0  0
   16.6080   11.4370    5.2350 C   0  0  0  0  0
   18.4170   19.3426    6.5362 H   0  0  0  0  0
   17.2900   18.9179    8.6056 H   0  0  0  0  0
   18.3707   16.5541    6.1270 H   0  0  0  0  0
   17.2980   17.0607    7.3464 H   0  0  0  0  0
   18.1379   15.3540    8.8622 H   0  0  0  0  0
   20.2743   14.4791    6.6641 H   0  0  0  0  0
   21.4394   14.0124    8.5302 H   0  0  0  0  0
   19.6859   12.1565    6.7811 H   0  0  0  0  0
   18.7487   11.2502    8.6645 H   0  0  0  0  0
   16.9502   12.2192    7.6131 H   0  0  0  0  0
   18.2653   14.0916    4.4290 H   0  0  0  0  0
   16.3667   11.0446    1.2529 H   0  0  0  0  0
   15.4309    9.5485    1.3383 H   0  0  0  0  0
   14.9248    8.7429    5.9690 H   0  0  0  0  0
  1  2  2  0  0  0
  1  3  1  0  0  0
  1  4  1  0  0  0
  1  5  1  0  0  0
  5  6  1  0  0  0
  6  7  1  0  0  0
  7  8  1  0  0  0
  7  9  1  0  0  0
  8 13  1  0  0  0
  9 10  1  0  0  0
  9 11  1  0  0  0
 11 12  1  0  0  0
 11 13  1  0  0  0
 13 14  1  0  0  0
 14 15  4  0  0  0
 14 23  4  0  0  0
 15 16  4  0  0  0
 16 17  4  0  0  0
 17 18  4  0  0  0
 17 23  4  0  0  0
 18 19  1  0  0  0
 18 20  4  0  0  0
 20 21  4  0  0  0
 21 22  4  0  0  0
 22 23  4  0  0  0
  3 24  1  0  0  0
  4 25  1  0  0  0
  6 26  1  0  0  0
  6 27  1  0  0  0
  7 28  1  0  0  0
  9 29  1  0  0  0
 10 30  1  0  0  0
 11 31  1  0  0  0
 12 32  1  0  0  0
 13 33  1  0  0  0
 15 34  1  0  0  0
 19 35  1  0  0  0
 19 36  1  0  0  0
 21 37  1  0  0  0
M  END
$$$$
