1lyx_ligand
  -I-interpret- 

 14 13  0  0  0  0  0  0  0  0999 V2000
   22.1250   -1.6950    6.1490 P   0  0  0  0  0
   21.9220   -2.1910    7.7020 O   0  0  0  0  0
   21.8020   -2.9790    5.4330 O   0  0  0  0  0
   23.5540   -1.2620    6.0550 O   0  0  0  0  0
   21.1010   -0.5970    5.9980 O   0  0  0  0  0
   20.6500   -2.2030    8.3650 C   0  0  0  0  0
   20.9810   -2.7720    9.6560 C   0  0  0  0  0
   22.0980   -2.5820   10.4050 O   0  0  0  0  0
   20.1980   -3.6360   10.3390 O   0  0  0  0  0
   20.8701   -3.1806    5.5445 H   0  0  0  0  0
   20.2197   -0.9704    6.0725 H   0  0  0  0  0
   19.8911   -2.7714    7.8273 H   0  0  0  0  0
   20.1934   -1.2158    8.4354 H   0  0  0  0  0
   22.6847   -1.9710    9.9533 H   0  0  0  0  0
  1  2  1  0  0  0
  1  3  1  0  0  0
  1  4  2  0  0  0
  1  5  1  0  0  0
  2  6  1  0  0  0
  6  7  1  0  0  0
  7  8  1  0  0  0
  7  9  2  0  0  0
  3 10  1  0  0  0
  5 11  1  0  0  0
  6 12  1  0  0  0
  6 13  1  0  0  0
  8 14  1  0  0  0
M  END
$$$$
