### 
### Created by X-TOOL on Mon Sep 10 21:12:50 2018
### 

@<TRIPOS>MOLECULE
1lyx_ligand
   11    10     1     0     0
SMALL
GAST_HUCK


@<TRIPOS>ATOM
      1 P          22.1250   -1.6950    6.1490 P.3       1 PGA         0.2032
      2 O1P        21.9220   -2.1910    7.7020 O.3       1 PGA        -0.2622
      3 O2P        21.8020   -2.9790    5.4330 O.co2     1 PGA        -0.5536
      4 O3P        23.5540   -1.2620    6.0550 O.co2     1 PGA        -0.5536
      5 O4P        21.1010   -0.5970    5.9980 O.co2     1 PGA        -0.5536
      6 C2         20.6500   -2.2030    8.3650 C.3       1 PGA         0.1305
      7 C1         20.9810   -2.7720    9.6560 C.2       1 PGA         0.0653
      8 O1         22.0980   -2.5820   10.4050 O.co2     1 PGA        -0.5663
      9 O2         20.1980   -3.6360   10.3390 O.co2     1 PGA        -0.5663
     10 H1         19.9257   -2.8317    7.8263 H         1 PGA         0.0783
     11 H2         20.2456   -1.1854    8.4699 H         1 PGA         0.0783
@<TRIPOS>BOND
     1    1    2 1  
     2    1    3 ar 
     3    1    4 ar 
     4    1    5 ar 
     5    2    6 1  
     6    6    7 1  
     7    7    8 ar 
     8    7    9 ar 
     9    6   10 1  
    10    6   11 1  
@<TRIPOS>SUBSTRUCTURE
     1 PGA         1

