### 
### Created by X-TOOL on Mon Sep 10 21:13:20 2018
### 

@<TRIPOS>MOLECULE
4x5q_ligand
   50    53     1     0     0
SMALL
GAST_HUCK


@<TRIPOS>ATOM
      1 O3        -24.1110   -9.7690   -7.6790 O.3       1 3XN        -0.3864
      2 C4        -27.1610   -7.5890   -7.9160 C.3       1 3XN         0.1137
      3 C5        -27.7200   -6.4400   -7.1240 C.3       1 3XN         0.0730
      4 O4        -24.1020   -7.6840   -9.5770 O.3       1 3XN        -0.3833
      5 C6        -28.5790   -8.9190  -10.6820 C.ar      1 3XN         0.1712
      6 N1        -37.4750  -10.6490  -10.0590 N.2       1 3XN        -0.2018
      7 C7        -29.0040   -7.7270  -11.1830 C.ar      1 3XN         0.0349
      8 C8        -30.3350   -7.6400  -11.6220 C.ar      1 3XN         0.0430
      9 C9        -31.1900   -8.7500  -11.5350 C.ar      1 3XN         0.1983
     10 O5        -27.2760   -9.1160  -10.2620 O.3       1 3XN        -0.2327
     11 C10       -30.7160   -9.9400  -11.0230 C.ar      1 3XN         0.0430
     12 O6        -37.5430  -11.0810   -8.9100 O.2       1 3XN        -0.4870
     13 C11       -29.4180  -10.0220  -10.6030 C.ar      1 3XN         0.0349
     14 C12       -32.9790   -7.9050  -13.0710 C.2       1 3XN         0.1754
     15 C13       -34.3580   -8.0770  -13.2050 C.2       1 3XN         0.0730
     16 O7        -38.4390  -10.5870  -10.8090 O.2       1 3XN        -0.4870
     17 C14       -34.7970   -8.9530  -12.1160 C.ar      1 3XN         0.1106
     18 C15       -33.6340   -9.2990  -11.3590 C.ar      1 3XN         0.1950
     19 C18       -36.1400  -10.1770  -10.5400 C.ar      1 3XN         0.1397
     20 C19       -36.0690   -9.4010  -11.7030 C.ar      1 3XN         0.0390
     21 C17       -34.9910  -10.5270   -9.7770 C.ar      1 3XN         0.0300
     22 C16       -33.7400  -10.0980  -10.1810 C.ar      1 3XN         0.0445
     23 N         -32.5500   -8.6600  -11.9550 N.pl3     1 3XN        -0.1165
     24 C         -26.4000   -8.0750  -10.0740 C.3       1 3XN         0.2295
     25 O         -26.8510   -7.0740   -9.2190 O.3       1 3XN        -0.3337
     26 O1        -26.7620   -5.3920   -6.9740 O.3       1 3XN        -0.3924
     27 C3        -25.9110   -8.2150   -7.2920 C.3       1 3XN         0.1119
     28 O2        -26.2400   -8.8270   -6.0650 O.3       1 3XN        -0.3865
     29 C2        -25.3300   -9.2710   -8.2220 C.3       1 3XN         0.1148
     30 C1        -25.1080   -8.6930   -9.6140 C.3       1 3XN         0.1425
     31 H1        -23.7516  -10.4275   -8.2619 H         1 3XN         0.2100
     32 H2        -27.9307   -8.3702   -8.0009 H         1 3XN         0.0647
     33 H3        -28.0127   -6.8019   -6.1273 H         1 3XN         0.0584
     34 H4        -28.6043   -6.0439   -7.6446 H         1 3XN         0.0584
     35 H5        -23.2821   -8.0664   -9.2872 H         1 3XN         0.2101
     36 H6        -28.3377   -6.8739  -11.2411 H         1 3XN         0.0798
     37 H7        -30.7056   -6.7073  -12.0317 H         1 3XN         0.0914
     38 H8        -31.3679  -10.8033  -10.9543 H         1 3XN         0.0914
     39 H9        -29.0403  -10.9567  -10.2046 H         1 3XN         0.0798
     40 H10       -32.3448   -7.2960  -13.7135 H         1 3XN         0.1601
     41 H11       -34.9905   -7.6405  -13.9766 H         1 3XN         0.1350
     42 H12       -36.9610   -9.1530  -12.2668 H         1 3XN         0.1214
     43 H13       -35.0961  -11.1284   -8.8813 H         1 3XN         0.1039
     44 H14       -32.8557  -10.3638   -9.6132 H         1 3XN         0.1033
     45 H15       -26.2271   -7.5994  -11.0507 H         1 3XN         0.1043
     46 H16       -27.1455   -4.6836   -6.4705 H         1 3XN         0.2095
     47 H17       -25.1618   -7.4283   -7.1196 H         1 3XN         0.0647
     48 H18       -26.5931   -8.1746   -5.4716 H         1 3XN         0.2100
     49 H19       -26.0451  -10.1031   -8.3008 H         1 3XN         0.0648
     50 H20       -24.8043   -9.4928  -10.3054 H         1 3XN         0.0679
@<TRIPOS>BOND
     1   29    1 1  
     2    2    3 1  
     3    2   25 1  
     4   27    2 1  
     5    3   26 1  
     6   30    4 1  
     7    5    7 ar 
     8   10    5 1  
     9    5   13 ar 
    10    6   12 2  
    11    6   16 2  
    12   19    6 1  
    13    7    8 ar 
    14    8    9 ar 
    15   11    9 ar 
    16    9   23 1  
    17   24   10 1  
    18   13   11 ar 
    19   14   15 2  
    20   23   14 1  
    21   17   15 1  
    22   18   17 ar 
    23   17   20 ar 
    24   18   22 ar 
    25   23   18 1  
    26   20   19 ar 
    27   21   19 ar 
    28   22   21 ar 
    29   25   24 1  
    30   24   30 1  
    31   27   28 1  
    32   27   29 1  
    33   29   30 1  
    34    1   31 1  
    35    2   32 1  
    36    3   33 1  
    37    3   34 1  
    38    4   35 1  
    39    7   36 1  
    40    8   37 1  
    41   11   38 1  
    42   13   39 1  
    43   14   40 1  
    44   15   41 1  
    45   20   42 1  
    46   21   43 1  
    47   22   44 1  
    48   24   45 1  
    49   26   46 1  
    50   27   47 1  
    51   28   48 1  
    52   29   49 1  
    53   30   50 1  
@<TRIPOS>SUBSTRUCTURE
     1 3XN         1

