2bpy_ligand
  -I-interpret- 

108112  0  0  0  0  0  0  0  0999 V2000
    8.9220   24.4920    4.0750 C   0  0  0  0  0
   10.2030   25.1950    4.5520 C   0  0  0  0  0
   10.2540   25.1420    6.0470 C   0  0  0  0  0
   18.5660   20.1520    5.1320 O   0  0  0  0  0
    7.9220   25.4310    0.7400 O   0  0  0  0  0
    5.7000   24.5090    3.2560 N   0  0  0  0  0
    8.7100   25.6310    8.6950 C   0  0  0  0  0
   11.3090   24.5840    2.4500 C   0  0  0  0  0
    9.9950   23.9690    1.9650 C   0  0  0  0  0
   12.6670   25.2360    4.1620 C   0  0  0  0  0
   13.8060   24.3610    4.6710 C   0  0  0  0  0
   13.8440   23.9560    6.1300 C   0  0  0  0  0
   15.0610   23.0250    6.4480 C   0  0  0  0  0
   15.0920   22.8590    7.9790 C   0  0  0  0  0
   16.1630   21.9130    8.4370 C   0  0  0  0  0
   17.5280   22.1510    8.2120 C   0  0  0  0  0
   16.6670   19.8520    9.6250 C   0  0  0  0  0
   15.7190   20.7430    9.1070 C   0  0  0  0  0
   14.8780   21.6210    5.7350 C   0  0  0  0  0
   16.2580   19.7470    4.7570 C   0  0  0  0  0
   17.6250   17.9810    4.3950 C   0  0  0  0  0
    0.6960   27.7460    2.5650 C   0  0  0  0  0
   15.6470   18.9960    3.5000 C   0  0  0  0  0
    7.7530   25.1580    1.9290 C   0  0  0  0  0
    6.4280   25.4570    2.5830 C   0  0  0  0  0
    4.4370   24.7830    3.6810 C   0  0  0  0  0
    3.8730   26.0550    3.4570 C   0  0  0  0  0
    1.0430   27.9840    4.9440 C   0  0  0  0  0
    8.8280   24.5750    2.6260 N   0  0  0  0  0
   10.6290   24.1220    6.6320 O   0  0  0  0  0
    9.8270   26.2990    6.6380 N   0  0  0  0  0
    9.7740   26.5360    8.0740 C   0  0  0  0  0
    9.3930   28.0210    8.3300 C   0  0  0  0  0
   11.1240   26.3360    8.7390 C   0  0  0  0  0
   11.3870   24.5460    3.9340 N   0  3  0  0  0
   14.9750   25.0880    4.4260 O   0  0  0  0  0
   18.4820   21.2640    8.7440 C   0  0  0  0  0
   18.0180   20.1710    9.4820 C   0  0  0  0  0
   13.7840   21.0500    5.7300 O   0  0  0  0  0
   15.9990   21.1510    5.1860 N   0  0  0  0  0
   17.5690   19.1570    5.3900 C   0  0  0  0  0
   16.9470   18.3460    3.1610 C   0  0  0  0  0
   15.1550   19.9600    2.4540 C   0  0  0  0  0
    4.6180   26.9870    2.8540 N   0  0  0  0  0
    5.8430   26.7280    2.4010 C   0  0  0  0  0
    1.6360   26.5000    2.4920 C   0  0  0  0  0
    0.0080   27.8200    3.8940 N   0  3  0  0  0
    1.9860   26.7370    4.9870 C   0  0  0  0  0
    2.5550   26.4110    3.6570 N   0  0  0  0  0
   -0.9570   28.9390    3.9920 C   0  0  0  0  0
    3.5093   23.5515    4.5088 Cl  0  0  0  0  0
    8.9511   23.4447    4.3759 H   0  0  0  0  0
    8.0550   24.9785    4.5218 H   0  0  0  0  0
   10.2052   26.2411    4.2457 H   0  0  0  0  0
   19.4070   19.8618    5.4928 H   0  0  0  0  0
    7.7401   25.8551    8.2510 H   0  0  0  0  0
    8.9658   24.5886    8.5053 H   0  0  0  0  0
    8.6681   25.8063    9.7700 H   0  0  0  0  0
   12.1404   24.0124    2.0375 H   0  0  0  0  0
   11.3567   25.6217    2.1199 H   0  0  0  0  0
   10.0077   22.9052    2.2021 H   0  0  0  0  0
    9.9103   24.1458    0.8928 H   0  0  0  0  0
   12.4824   25.9832    4.9338 H   0  0  0  0  0
   12.9848   25.6257    3.1949 H   0  0  0  0  0
   13.6756   23.4124    4.1501 H   0  0  0  0  0
   12.9284   23.4095    6.3562 H   0  0  0  0  0
   13.9393   24.8595    6.7323 H   0  0  0  0  0
   15.9953   23.4515    6.0830 H   0  0  0  0  0
   14.1301   22.4523    8.2912 H   0  0  0  0  0
   15.2978   23.8354    8.4175 H   0  0  0  0  0
   17.8463   23.0159    7.6299 H   0  0  0  0  0
   16.3582   18.9346   10.1261 H   0  0  0  0  0
   14.6536   20.5407    9.2169 H   0  0  0  0  0
   15.2827   19.4185    5.1160 H   0  0  0  0  0
   18.6661   17.7430    4.1770 H   0  0  0  0  0
   17.1316   17.1139    4.8341 H   0  0  0  0  0
   -0.0593   27.6614    1.7837 H   0  0  0  0  0
    1.2960   28.6460    2.4305 H   0  0  0  0  0
   14.7721   18.3574    3.6222 H   0  0  0  0  0
    0.5514   28.0885    5.9112 H   0  0  0  0  0
    1.6379   28.8690    4.7183 H   0  0  0  0  0
    9.5218   27.0551    6.0252 H   0  0  0  0  0
   10.1427   28.6703    7.8778 H   0  0  0  0  0
    8.4183   28.2262    7.8874 H   0  0  0  0  0
    9.3518   28.2043    9.4037 H   0  0  0  0  0
   11.4594   25.3117    8.5766 H   0  0  0  0  0
   11.8464   27.0289    8.3075 H   0  0  0  0  0
   11.0321   26.5243    9.8087 H   0  0  0  0  0
   11.3673   23.6190    4.3592 H   0  0  0  0  0
   15.7336   24.5833    4.7282 H   0  0  0  0  0
   19.5485   21.4239    8.5858 H   0  0  0  0  0
   18.7524   19.5325    9.9730 H   0  0  0  0  0
   16.7559   21.8201    5.0454 H   0  0  0  0  0
   17.6565   18.8932    6.4440 H   0  0  0  0  0
   17.5671   19.0366    2.5894 H   0  0  0  0  0
   16.7683   17.4542    2.5603 H   0  0  0  0  0
   14.3797   20.5949    2.8828 H   0  0  0  0  0
   15.9851   20.5783    2.1124 H   0  0  0  0  0
   14.7451   19.4024    1.6119 H   0  0  0  0  0
    6.4011   27.5079    1.8829 H   0  0  0  0  0
    1.0109   25.6070    2.4878 H   0  0  0  0  0
    2.2429   26.5890    1.5910 H   0  0  0  0  0
   -0.5249   26.9585    4.0132 H   0  0  0  0  0
    2.8125   26.9628    5.6608 H   0  0  0  0  0
    1.3984   25.8817    5.3208 H   0  0  0  0  0
   -0.4336   29.8829    3.8393 H   0  0  0  0  0
   -1.7266   28.8213    3.2291 H   0  0  0  0  0
   -1.4186   28.9336    4.9794 H   0  0  0  0  0
  1 29  1  0  0  0
  1  2  1  0  0  0
  2 35  1  0  0  0
  2  3  1  0  0  0
  3 31  1  0  0  0
  3 30  2  0  0  0
 31 32  1  0  0  0
 32  7  1  0  0  0
 32 34  1  0  0  0
 32 33  1  0  0  0
 35 10  1  0  0  0
 35  8  1  0  0  0
  8  9  1  0  0  0
  9 29  1  0  0  0
 29 24  1  0  0  0
 24 25  1  0  0  0
 24  5  2  0  0  0
 25  6  4  0  0  0
 25 45  4  0  0  0
 45 44  4  0  0  0
 44 27  4  0  0  0
 27 49  1  0  0  0
 27 26  4  0  0  0
 26  6  4  0  0  0
 49 48  1  0  0  0
 49 46  1  0  0  0
 46 22  1  0  0  0
 22 47  1  0  0  0
 47 28  1  0  0  0
 47 50  1  0  0  0
 28 48  1  0  0  0
 10 11  1  0  0  0
 11 36  1  0  0  0
 11 12  1  0  0  0
 12 13  1  0  0  0
 13 19  1  0  0  0
 13 14  1  0  0  0
 14 15  1  0  0  0
 15 18  4  0  0  0
 15 16  4  0  0  0
 16 37  4  0  0  0
 37 38  4  0  0  0
 38 17  4  0  0  0
 17 18  4  0  0  0
 19 39  2  0  0  0
 19 40  1  0  0  0
 40 20  1  0  0  0
 20 41  1  0  0  0
 20 23  1  0  0  0
 23 42  1  0  0  0
 23 43  1  0  0  0
 42 21  1  0  0  0
 21 41  1  0  0  0
 41  4  1  0  0  0
 26 51  1  0  0  0
  1 52  1  0  0  0
  1 53  1  0  0  0
  2 54  1  0  0  0
  4 55  1  0  0  0
  7 56  1  0  0  0
  7 57  1  0  0  0
  7 58  1  0  0  0
  8 59  1  0  0  0
  8 60  1  0  0  0
  9 61  1  0  0  0
  9 62  1  0  0  0
 10 63  1  0  0  0
 10 64  1  0  0  0
 11 65  1  0  0  0
 12 66  1  0  0  0
 12 67  1  0  0  0
 13 68  1  0  0  0
 14 69  1  0  0  0
 14 70  1  0  0  0
 16 71  1  0  0  0
 17 72  1  0  0  0
 18 73  1  0  0  0
 20 74  1  0  0  0
 21 75  1  0  0  0
 21 76  1  0  0  0
 22 77  1  0  0  0
 22 78  1  0  0  0
 23 79  1  0  0  0
 28 80  1  0  0  0
 28 81  1  0  0  0
 31 82  1  0  0  0
 33 83  1  0  0  0
 33 84  1  0  0  0
 33 85  1  0  0  0
 34 86  1  0  0  0
 34 87  1  0  0  0
 34 88  1  0  0  0
 35 89  1  0  0  0
 36 90  1  0  0  0
 37 91  1  0  0  0
 38 92  1  0  0  0
 40 93  1  0  0  0
 41 94  1  0  0  0
 42 95  1  0  0  0
 42 96  1  0  0  0
 43 97  1  0  0  0
 43 98  1  0  0  0
 43 99  1  0  0  0
 45100  1  0  0  0
 46101  1  0  0  0
 46102  1  0  0  0
 47103  1  0  0  0
 48104  1  0  0  0
 48105  1  0  0  0
 50106  1  0  0  0
 50107  1  0  0  0
 50108  1  0  0  0
M  END
$$$$
