### 
### Created by X-TOOL on Mon Sep 10 21:12:47 2018
### 

@<TRIPOS>MOLECULE
2bpy_ligand
  108   112     1     0     0
SMALL
GAST_HUCK


@<TRIPOS>ATOM
      1 C1          8.9220   24.4920    4.0750 C.3       1 3IN         0.0938
      2 C2         10.2030   25.1950    4.5520 C.3       1 3IN         0.0892
      3 C3         10.2540   25.1420    6.0470 C.2       1 3IN         0.2271
      4 O4         18.5660   20.1520    5.1320 O.3       1 3IN        -0.3895
      5 O5          7.9220   25.4310    0.7400 O.2       1 3IN        -0.3823
      6 N6          5.7000   24.5090    3.2560 N.ar      1 3IN        -0.2514
      7 C7          8.7100   25.6310    8.6950 C.3       1 3IN        -0.0396
      8 C8         11.3090   24.5840    2.4500 C.3       1 3IN        -0.0088
      9 C9          9.9950   23.9690    1.9650 C.3       1 3IN         0.0738
     10 C10        12.6670   25.2360    4.1620 C.3       1 3IN        -0.0029
     11 C11        13.8060   24.3610    4.6710 C.3       1 3IN         0.0974
     12 C12        13.8440   23.9560    6.1300 C.3       1 3IN        -0.0003
     13 C13        15.0610   23.0250    6.4480 C.3       1 3IN         0.0607
     14 C14        15.0920   22.8590    7.9790 C.3       1 3IN         0.0007
     15 C15        16.1630   21.9130    8.4370 C.ar      1 3IN        -0.0405
     16 C16        17.5280   22.1510    8.2120 C.ar      1 3IN        -0.0602
     17 C19        16.6670   19.8520    9.6250 C.ar      1 3IN        -0.0686
     18 C20        15.7190   20.7430    9.1070 C.ar      1 3IN        -0.0602
     19 C21        14.8780   21.6210    5.7350 C.2       1 3IN         0.1814
     20 C22        16.2580   19.7470    4.7570 C.3       1 3IN         0.0704
     21 C24        17.6250   17.9810    4.3950 C.3       1 3IN        -0.0244
     22 C27         0.6960   27.7460    2.5650 C.3       1 3IN        -0.0111
     23 C30        15.6470   18.9960    3.5000 C.3       1 3IN        -0.0183
     24 C31         7.7530   25.1580    1.9290 C.2       1 3IN         0.2235
     25 C32         6.4280   25.4570    2.5830 C.ar      1 3IN         0.1334
     26 C33         4.4370   24.7830    3.6810 C.ar      1 3IN         0.1720
     27 C34         3.8730   26.0550    3.4570 C.ar      1 3IN         0.1675
     28 C35         1.0430   27.9840    4.9440 C.3       1 3IN        -0.0111
     29 N1          8.8280   24.5750    2.6260 N.am      1 3IN        -0.2585
     30 O1         10.6290   24.1220    6.6320 O.2       1 3IN        -0.3908
     31 N2          9.8270   26.2990    6.6380 N.am      1 3IN        -0.2770
     32 C4          9.7740   26.5360    8.0740 C.3       1 3IN         0.0448
     33 C5          9.3930   28.0210    8.3300 C.3       1 3IN        -0.0396
     34 C6         11.1240   26.3360    8.7390 C.3       1 3IN        -0.0396
     35 N3         11.3870   24.5460    3.9340 N.4       1 3IN         0.2588
     36 O2         14.9750   25.0880    4.4260 O.3       1 3IN        -0.3864
     37 C17        18.4820   21.2640    8.7440 C.ar      1 3IN        -0.0686
     38 C18        18.0180   20.1710    9.4820 C.ar      1 3IN        -0.0687
     39 O3         13.7840   21.0500    5.7300 O.2       1 3IN        -0.3966
     40 N4         15.9990   21.1510    5.1860 N.am      1 3IN        -0.2808
     41 C23        17.5690   19.1570    5.3900 C.3       1 3IN         0.0783
     42 C25        16.9470   18.3460    3.1610 C.3       1 3IN        -0.0459
     43 C29        15.1550   19.9600    2.4540 C.3       1 3IN        -0.0602
     44 N7          4.6180   26.9870    2.8540 N.ar      1 3IN        -0.2567
     45 C36         5.8430   26.7280    2.4010 C.ar      1 3IN         0.0421
     46 C26         1.6360   26.5000    2.4920 C.3       1 3IN         0.0721
     47 N8          0.0080   27.8200    3.8940 N.4       1 3IN         0.2360
     48 C37         1.9860   26.7370    4.9870 C.3       1 3IN         0.0721
     49 N5          2.5550   26.4110    3.6570 N.pl3     1 3IN        -0.2749
     50 C28        -0.9570   28.9390    3.9920 C.3       1 3IN        -0.0429
     51 Cl1         3.5093   23.5515    4.5088 Cl        1 3IN        -0.0366
     52 H1          8.9496   23.4354    4.3798 H         1 3IN         0.0605
     53 H2          8.0465   24.9812    4.5269 H         1 3IN         0.0605
     54 H3         10.1763   26.2485    4.2366 H         1 3IN         0.1120
     55 H4         19.4284   19.7586    5.1958 H         1 3IN         0.2099
     56 H5          8.6668   25.8070    9.7800 H         1 3IN         0.0254
     57 H6          8.9670   24.5786    8.5043 H         1 3IN         0.0254
     58 H7          7.7306   25.8562    8.2478 H         1 3IN         0.0254
     59 H8         12.1514   24.0157    2.0288 H         1 3IN         0.0835
     60 H9         11.3659   25.6290    2.1114 H         1 3IN         0.0835
     61 H10        10.0059   22.8906    2.1815 H         1 3IN         0.0575
     62 H11         9.9091   24.1243    0.8794 H         1 3IN         0.0575
     63 H12        12.4953   26.0318    4.9017 H         1 3IN         0.0840
     64 H13        12.9845   25.6837    3.2087 H         1 3IN         0.0840
     65 H14        13.8035   23.4361    4.0755 H         1 3IN         0.0648
     66 H15        12.9143   23.4213    6.3746 H         1 3IN         0.0321
     67 H16        13.9192   24.8625    6.7485 H         1 3IN         0.0321
     68 H17        15.9951   23.4902    6.1001 H         1 3IN         0.0561
     69 H18        14.1167   22.4738    8.3111 H         1 3IN         0.0453
     70 H19        15.2726   23.8430    8.4362 H         1 3IN         0.0453
     71 H20        17.8446   23.0111    7.6331 H         1 3IN         0.0557
     72 H21        16.3599   18.9396   10.1233 H         1 3IN         0.0599
     73 H22        14.6595   20.5418    9.2163 H         1 3IN         0.0557
     74 H23        15.5508   19.2964    5.4689 H         1 3IN         0.0584
     75 H24        18.6752   17.7376    4.1763 H         1 3IN         0.0291
     76 H25        17.1300   17.1042    4.8380 H         1 3IN         0.0291
     77 H26        -0.0617   27.6725    1.7710 H         1 3IN         0.0835
     78 H27         1.2941   28.6574    2.4180 H         1 3IN         0.0835
     79 H28        14.8510   18.2796    3.7512 H         1 3IN         0.0321
     80 H29         0.5515   28.0993    5.9213 H         1 3IN         0.0835
     81 H30         1.6403   28.8815    4.7258 H         1 3IN         0.0835
     82 H31         9.5278   27.0403    6.0372 H         1 3IN         0.1859
     83 H32         9.3511   28.2072    9.4133 H         1 3IN         0.0254
     84 H33         8.4094   28.2294    7.8839 H         1 3IN         0.0254
     85 H34        10.1489   28.6773    7.8741 H         1 3IN         0.0254
     86 H35        11.0326   26.5258    9.8186 H         1 3IN         0.0254
     87 H36        11.8540   27.0348    8.3044 H         1 3IN         0.0254
     88 H37        11.4636   25.3025    8.5759 H         1 3IN         0.0254
     89 H38        11.4378   23.5969    4.2697 H         1 3IN         0.2058
     90 H39        15.0542   25.2534    3.4939 H         1 3IN         0.2100
     91 H40        19.5427   21.4230    8.5867 H         1 3IN         0.0599
     92 H41        18.7483   19.5360    9.9703 H         1 3IN         0.0559
     93 H42        16.7411   21.8070    5.0482 H         1 3IN         0.1855
     94 H43        17.5221   18.8657    6.4497 H         1 3IN         0.0616
     95 H44        17.5727   19.0469    2.5890 H         1 3IN         0.0269
     96 H45        16.7633   17.4436    2.5594 H         1 3IN         0.0269
     97 H46        14.1973   20.3941    2.7770 H         1 3IN         0.0233
     98 H47        15.0136   19.4274    1.5020 H         1 3IN         0.0233
     99 H48        15.8944   20.7631    2.3186 H         1 3IN         0.0233
    100 H49         6.3980   27.5036    1.8857 H         1 3IN         0.0905
    101 H50         1.0161   25.5918    2.4615 H         1 3IN         0.0578
    102 H51         2.2368   26.5649    1.5729 H         1 3IN         0.0578
    103 H52        -0.4895   26.9566    4.0458 H         1 3IN         0.2032
    104 H53         2.8121   26.9430    5.6836 H         1 3IN         0.0578
    105 H54         1.4103   25.8714    5.3465 H         1 3IN         0.0578
    106 H55        -1.7292   28.8262    3.2167 H         1 3IN         0.0778
    107 H56        -0.4285   29.8928    3.8470 H         1 3IN         0.0778
    108 H57        -1.4302   28.9292    4.9849 H         1 3IN         0.0778
@<TRIPOS>BOND
     1    1   29 1  
     2    1    2 1  
     3    2   35 1  
     4    2    3 1  
     5    3   31 am 
     6    3   30 2  
     7   31   32 1  
     8   32    7 1  
     9   32   34 1  
    10   32   33 1  
    11   35   10 1  
    12   35    8 1  
    13    8    9 1  
    14    9   29 1  
    15   29   24 am 
    16   24   25 1  
    17   24    5 2  
    18   25    6 ar 
    19   25   45 ar 
    20   45   44 ar 
    21   44   27 ar 
    22   27   49 1  
    23   27   26 ar 
    24   26    6 ar 
    25   49   48 1  
    26   49   46 1  
    27   46   22 1  
    28   22   47 1  
    29   47   28 1  
    30   47   50 1  
    31   28   48 1  
    32   10   11 1  
    33   11   36 1  
    34   11   12 1  
    35   12   13 1  
    36   13   19 1  
    37   13   14 1  
    38   14   15 1  
    39   15   18 ar 
    40   15   16 ar 
    41   16   37 ar 
    42   37   38 ar 
    43   38   17 ar 
    44   17   18 ar 
    45   19   39 2  
    46   19   40 am 
    47   40   20 1  
    48   20   41 1  
    49   20   23 1  
    50   23   42 1  
    51   23   43 1  
    52   42   21 1  
    53   21   41 1  
    54   41    4 1  
    55   26   51 1  
    56    1   52 1  
    57    1   53 1  
    58    2   54 1  
    59    4   55 1  
    60    7   56 1  
    61    7   57 1  
    62    7   58 1  
    63    8   59 1  
    64    8   60 1  
    65    9   61 1  
    66    9   62 1  
    67   10   63 1  
    68   10   64 1  
    69   11   65 1  
    70   12   66 1  
    71   12   67 1  
    72   13   68 1  
    73   14   69 1  
    74   14   70 1  
    75   16   71 1  
    76   17   72 1  
    77   18   73 1  
    78   20   74 1  
    79   21   75 1  
    80   21   76 1  
    81   22   77 1  
    82   22   78 1  
    83   23   79 1  
    84   28   80 1  
    85   28   81 1  
    86   31   82 1  
    87   33   83 1  
    88   33   84 1  
    89   33   85 1  
    90   34   86 1  
    91   34   87 1  
    92   34   88 1  
    93   35   89 1  
    94   36   90 1  
    95   37   91 1  
    96   38   92 1  
    97   40   93 1  
    98   41   94 1  
    99   42   95 1  
   100   42   96 1  
   101   43   97 1  
   102   43   98 1  
   103   43   99 1  
   104   45  100 1  
   105   46  101 1  
   106   46  102 1  
   107   47  103 1  
   108   48  104 1  
   109   48  105 1  
   110   50  106 1  
   111   50  107 1  
   112   50  108 1  
@<TRIPOS>SUBSTRUCTURE
     1 3IN         1

