4epy_ligand
  -I-interpret- 

 49 53  0  0  0  0  0  0  0  0999 V2000
   25.2870   -8.2020   13.0740 O   0  0  0  0  0
   24.7460   -8.0830   14.1650 C   0  0  0  0  0
   24.3900   -9.3380   14.9380 C   0  0  0  0  0
   23.6910  -10.3540   14.1510 N   0  3  0  0  0
   24.5930  -11.4600   13.9890 C   0  0  0  0  0
   25.5100  -11.4150   15.1590 C   0  0  0  0  0
   25.6200   -9.9710   15.4930 C   0  0  0  0  0
   24.4210   -6.7920   14.7530 N   0  0  0  0  0
   24.7220   -5.4850   14.1570 C   0  0  0  0  0
   24.8460   -4.3000   15.0010 C   0  0  0  0  0
   25.1580   -2.9810   14.4140 C   0  0  0  0  0
   24.9350   -5.3460   12.6920 C   0  0  0  0  0
   25.2680   -3.9670   12.0760 C   0  0  0  0  0
   25.3730   -2.8500   12.8850 C   0  0  0  0  0
   25.6720   -1.7760   12.0890 N   0  0  0  0  0
   25.7510   -2.2240   10.7810 C   0  0  0  0  0
   26.0680   -1.3840    9.5630 C   0  0  0  0  0
   24.8460   -1.1380    8.7260 C   0  0  0  0  0
   24.4500   -1.8610    7.6000 C   0  0  0  0  0
   23.2730   -1.3000    7.1240 N   0  0  0  0  0
   22.9430   -0.2260    7.9510 C   0  0  0  0  0
   21.7660    0.7680    7.9310 C   0  0  0  0  0
   21.6840    1.8220    8.9630 C   0  0  0  0  0
   22.7060    1.9290    9.9970 C   0  0  0  0  0
   23.8330    0.9730   10.0160 C   0  0  0  0  0
   23.9160   -0.1270    8.9390 C   0  0  0  0  0
   25.5050   -3.5780   10.7810 N   0  0  0  0  0
   23.7135   -8.9993   15.7227 H   0  0  0  0  0
   23.4157   -9.9789   13.2433 H   0  0  0  0  0
   22.8384  -10.6521   14.6250 H   0  0  0  0  0
   25.1445  -11.3859   13.0518 H   0  0  0  0  0
   24.0539  -12.4064   13.9458 H   0  0  0  0  0
   26.4807  -11.8564   14.9334 H   0  0  0  0  0
   25.1307  -11.9996   15.9971 H   0  0  0  0  0
   25.6982   -9.8152   16.5690 H   0  0  0  0  0
   26.5219   -9.5307   15.0679 H   0  0  0  0  0
   23.9442   -6.7958   15.6547 H   0  0  0  0  0
   24.7065   -4.3899   16.0783 H   0  0  0  0  0
   26.1185   -2.7070   14.8504 H   0  0  0  0  0
   24.2765   -2.3738   14.6199 H   0  0  0  0  0
   23.9726   -5.6108   12.2540 H   0  0  0  0  0
   25.8188   -5.9512   12.4902 H   0  0  0  0  0
   26.7981   -1.9198    8.9564 H   0  0  0  0  0
   26.4534   -0.4217    9.8999 H   0  0  0  0  0
   24.9727   -2.7155    7.1702 H   0  0  0  0  0
   20.9987    0.6941    7.1604 H   0  0  0  0  0
   20.8519    2.5259    8.9512 H   0  0  0  0  0
   22.6393    2.7111   10.7533 H   0  0  0  0  0
   24.6006    1.0452   10.7865 H   0  0  0  0  0
  1  2  2  0  0  0
  2  3  1  0  0  0
  2  8  1  0  0  0
  3  4  1  0  0  0
  3  7  1  0  0  0
  4  5  1  0  0  0
  5  6  1  0  0  0
  6  7  1  0  0  0
  8  9  1  0  0  0
  9 10  2  0  0  0
  9 12  1  0  0  0
 10 11  1  0  0  0
 11 14  1  0  0  0
 12 13  1  0  0  0
 13 14  4  0  0  0
 13 27  4  0  0  0
 14 15  4  0  0  0
 15 16  4  0  0  0
 16 17  1  0  0  0
 16 27  4  0  0  0
 17 18  1  0  0  0
 18 19  4  0  0  0
 18 26  4  0  0  0
 19 20  4  0  0  0
 20 21  4  0  0  0
 21 22  4  0  0  0
 21 26  4  0  0  0
 22 23  4  0  0  0
 23 24  4  0  0  0
 24 25  4  0  0  0
 25 26  4  0  0  0
  3 28  1  0  0  0
  4 29  1  0  0  0
  4 30  1  0  0  0
  5 31  1  0  0  0
  5 32  1  0  0  0
  6 33  1  0  0  0
  6 34  1  0  0  0
  7 35  1  0  0  0
  7 36  1  0  0  0
  8 37  1  0  0  0
 10 38  1  0  0  0
 11 39  1  0  0  0
 11 40  1  0  0  0
 12 41  1  0  0  0
 12 42  1  0  0  0
 17 43  1  0  0  0
 17 44  1  0  0  0
 19 45  1  0  0  0
 22 46  1  0  0  0
 23 47  1  0  0  0
 24 48  1  0  0  0
 25 49  1  0  0  0
M  END
$$$$
