### 
### Created by X-TOOL on Mon Sep 10 21:13:08 2018
### 

@<TRIPOS>MOLECULE
4epy_ligand
   51    55     1     0     0
SMALL
GAST_HUCK


@<TRIPOS>ATOM
      1 O01        25.2870   -8.2020   13.0740 O.2       1 0QY        -0.3787
      2 C02        24.7460   -8.0830   14.1650 C.2       1 0QY         0.2520
      3 C03        24.3900   -9.3380   14.9380 C.3       1 0QY         0.0728
      4 N04        23.6910  -10.3540   14.1510 N.4       1 0QY         0.2465
      5 C05        24.5930  -11.4600   13.9890 C.3       1 0QY        -0.0313
      6 C06        25.5100  -11.4150   15.1590 C.3       1 0QY        -0.0052
      7 C07        25.6200   -9.9710   15.4930 C.3       1 0QY         0.0132
      8 N08        24.4210   -6.7920   14.7530 N.am      1 0QY        -0.2359
      9 C09        24.7220   -5.4850   14.1570 C.2       1 0QY         0.0326
     10 C10        24.8460   -4.3000   15.0010 C.2       1 0QY        -0.0918
     11 C11        25.1580   -2.9810   14.4140 C.3       1 0QY        -0.0115
     12 C12        24.9350   -5.3460   12.6920 C.3       1 0QY         0.0154
     13 C13        25.2680   -3.9670   12.0760 C.2       1 0QY        -0.0095
     14 C14        25.3730   -2.8500   12.8850 C.2       1 0QY         0.0428
     15 N15        25.6720   -1.7760   12.0890 N.pl3     1 0QY        -0.2664
     16 C16        25.7510   -2.2240   10.7810 C.2       1 0QY         0.1059
     17 C17        26.0680   -1.3840    9.5630 C.3       1 0QY         0.0348
     18 C18        24.8460   -1.1380    8.7260 C.2       1 0QY        -0.0299
     19 C19        24.4500   -1.8610    7.6000 C.2       1 0QY         0.0193
     20 N20        23.2730   -1.3000    7.1240 N.pl3     1 0QY        -0.2884
     21 C21        22.9430   -0.2260    7.9510 C.ar      1 0QY         0.0607
     22 C22        21.7660    0.7680    7.9310 C.ar      1 0QY        -0.0442
     23 C23        21.6840    1.8220    8.9630 C.ar      1 0QY        -0.0767
     24 C24        22.7060    1.9290    9.9970 C.ar      1 0QY        -0.0792
     25 C25        23.8330    0.9730   10.0160 C.ar      1 0QY        -0.0745
     26 C26        23.9160   -0.1270    8.9390 C.ar      1 0QY        -0.0193
     27 N27        25.5050   -3.5780   10.7810 N.2       1 0QY        -0.3433
     28 H1         23.7354   -9.0403   15.7704 H         1 0QY         0.1104
     29 H2         23.4383   -9.9796   13.2499 H         1 0QY         0.2035
     30 H3         22.8596  -10.6545   14.6352 H         1 0QY         0.2035
     31 H4         25.1618  -11.3556   13.0533 H         1 0QY         0.0814
     32 H5         24.0363  -12.4086   13.9759 H         1 0QY         0.0814
     33 H6         26.4948  -11.8291   14.8969 H         1 0QY         0.0320
     34 H7         25.0886  -11.9782   16.0047 H         1 0QY         0.0320
     35 H8         25.6657   -9.8312   16.5831 H         1 0QY         0.0347
     36 H9         26.5182   -9.5368   15.0296 H         1 0QY         0.0347
     37 H10        23.9535   -6.7958   15.6370 H         1 0QY         0.2264
     38 H11        24.7066   -4.3898   16.0773 H         1 0QY         0.0051
     39 H12        26.0811   -2.6278   14.8968 H         1 0QY         0.0419
     40 H13        24.3267   -2.3105   14.6773 H         1 0QY         0.0419
     41 H14        24.0126   -5.6947   12.2046 H         1 0QY         0.0503
     42 H15        25.7653   -6.0178   12.4288 H         1 0QY         0.0503
     43 H16        25.8131   -0.8066   12.4071 H         1 0QY         0.2323
     44 H17        26.8182   -1.9087    8.9532 H         1 0QY         0.0565
     45 H18        26.4750   -0.4168    9.8928 H         1 0QY         0.0565
     46 H19        24.9722   -2.7147    7.1706 H         1 0QY         0.0804
     47 H20        22.7375   -1.6203    6.3045 H         1 0QY         0.2219
     48 H21        21.0029    0.6945    7.1646 H         1 0QY         0.0542
     49 H22        20.8565    2.5221    8.9512 H         1 0QY         0.0530
     50 H23        22.6396    2.7068   10.7491 H         1 0QY         0.0510
     51 H24        24.5963    1.0448   10.7823 H         1 0QY         0.0540
@<TRIPOS>BOND
     1    1    2 2  
     2    2    3 1  
     3    2    8 am 
     4    3    4 1  
     5    3    7 1  
     6    4    5 1  
     7    5    6 1  
     8    6    7 1  
     9    8    9 1  
    10    9   10 2  
    11    9   12 1  
    12   10   11 1  
    13   11   14 1  
    14   12   13 1  
    15   13   14 2  
    16   13   27 1  
    17   14   15 1  
    18   15   16 1  
    19   16   17 1  
    20   16   27 2  
    21   17   18 1  
    22   18   19 2  
    23   18   26 1  
    24   19   20 1  
    25   20   21 1  
    26   21   22 ar 
    27   21   26 ar 
    28   22   23 ar 
    29   23   24 ar 
    30   24   25 ar 
    31   25   26 ar 
    32    3   28 1  
    33    4   29 1  
    34    4   30 1  
    35    5   31 1  
    36    5   32 1  
    37    6   33 1  
    38    6   34 1  
    39    7   35 1  
    40    7   36 1  
    41    8   37 1  
    42   10   38 1  
    43   11   39 1  
    44   11   40 1  
    45   12   41 1  
    46   12   42 1  
    47   15   43 1  
    48   17   44 1  
    49   17   45 1  
    50   19   46 1  
    51   20   47 1  
    52   22   48 1  
    53   23   49 1  
    54   24   50 1  
    55   25   51 1  
@<TRIPOS>SUBSTRUCTURE
     1 0QY         1

