4xu2_ligand
  -I-interpret- 

 66 70  0  0  0  0  0  0  0  0999 V2000
   -8.0470   -0.8140   11.9870 C   0  0  0  0  0
   -5.7990   -0.4330   11.4900 C   0  0  0  0  0
   -5.4650   -0.6780   12.8090 C   0  0  0  0  0
   -6.1850   -1.2420   15.0090 N   0  0  0  0  0
   -3.6490   -0.2170   11.6970 C   0  0  0  0  0
   -2.0960  -10.0150   13.8730 C   0  0  0  0  0
   -0.9020   -9.2940   13.4720 N   0  0  0  0  0
    0.0730   -9.4240   14.3670 C   0  0  0  0  0
    1.1450   -8.8430   14.3300 O   0  0  0  0  0
   -0.2890  -10.2580   15.3310 N   0  0  0  0  0
   -1.7000  -10.5560   15.2470 C   0  0  0  0  0
   -2.3930   -9.8220   16.3840 C   0  0  0  0  0
   -3.4430   -8.6310   15.6350 S   0  0  0  0  0
   -3.3220   -9.1080   13.9450 C   0  0  0  0  0
   -3.2250   -7.9130   13.0030 C   0  0  0  0  0
   -3.5100   -8.3540   11.5690 C   0  0  0  0  0
   -3.7100   -7.1620   10.6370 C   0  0  0  0  0
   -4.0700   -7.6000    9.2210 C   0  0  0  0  0
   -4.4600   -6.3940    8.3920 C   0  0  0  0  0
   -5.5720   -5.9060    8.5050 O   0  0  0  0  0
   -3.5380   -5.9150    7.5560 N   0  0  0  0  0
   -3.9520   -4.9560    6.3400 S   0  0  0  0  0
   -5.1550   -5.4400    5.7230 O   0  0  0  0  0
   -2.9100   -4.9240    5.3510 O   0  0  0  0  0
   -4.2160   -3.4610    6.8410 N   0  0  0  0  0
   -3.4270   -2.8450    7.8890 C   0  0  0  0  0
   -3.7020   -1.3490    7.8220 C   0  0  0  0  0
   -4.8440   -1.0100    8.6150 O   0  0  0  0  0
   -2.5360   -0.5310    8.3590 C   0  0  0  0  0
   -3.2040    0.6640    9.0160 C   0  0  0  0  0
   -4.5940    0.1690    9.3870 C   0  0  0  0  0
   -4.6720   -0.1540   10.8320 N   0  0  0  0  0
   -4.1270   -0.5400   12.9200 N   0  0  0  0  0
   -7.0930   -0.5040   11.0990 N   0  0  0  0  0
   -7.7500   -1.0540   13.2720 N   0  0  0  0  0
   -6.4730   -0.9940   13.7090 C   0  0  0  0  0
   -3.3430    1.7090    8.0450 O   0  0  0  0  0
   -9.0846   -0.8722   11.6583 H   0  0  0  0  0
   -5.2195   -1.1974   15.3350 H   0  0  0  0  0
   -6.9336   -1.4733   15.6621 H   0  0  0  0  0
   -2.6019   -0.0370   11.4536 H   0  0  0  0  0
   -2.3898  -10.7919   13.1672 H   0  0  0  0  0
   -0.8207   -8.7543   12.6103 H   0  0  0  0  0
    0.3425  -10.6378   16.0362 H   0  0  0  0  0
   -1.9646  -11.6092   15.3407 H   0  0  0  0  0
   -1.6671   -9.3453   17.0427 H   0  0  0  0  0
   -2.9638  -10.5120   17.0055 H   0  0  0  0  0
   -4.2210   -9.6270   13.6125 H   0  0  0  0  0
   -2.2198   -7.4948   13.0565 H   0  0  0  0  0
   -3.9574   -7.1622   13.2996 H   0  0  0  0  0
   -4.4253   -8.9459   11.5686 H   0  0  0  0  0
   -2.6553   -8.9282   11.2114 H   0  0  0  0  0
   -2.7760   -6.6017   10.5940 H   0  0  0  0  0
   -4.5296   -6.5580   11.0263 H   0  0  0  0  0
   -4.9089   -8.2947    9.2619 H   0  0  0  0  0
   -3.2077   -8.0862    8.7649 H   0  0  0  0  0
   -2.5577   -6.1618    7.6919 H   0  0  0  0  0
   -4.9659   -2.9219    6.4080 H   0  0  0  0  0
   -2.3660   -3.0515    7.7485 H   0  0  0  0  0
   -3.6977   -3.2462    8.8656 H   0  0  0  0  0
   -3.8665   -1.1184    6.7694 H   0  0  0  0  0
   -1.8389   -0.2372    7.5742 H   0  0  0  0  0
   -1.9186   -1.0968    9.0567 H   0  0  0  0  0
   -2.6415    1.0417    9.8698 H   0  0  0  0  0
   -5.3345    0.9418    9.1806 H   0  0  0  0  0
   -3.7649    2.4689    8.4526 H   0  0  0  0  0
 34  1  4  0  0  0
  1 35  4  0  0  0
  2  3  4  0  0  0
 32  2  4  0  0  0
  2 34  4  0  0  0
 33  3  4  0  0  0
  3 36  4  0  0  0
 36  4  1  0  0  0
 32  5  4  0  0  0
  5 33  4  0  0  0
  6  7  1  0  0  0
  6 11  1  0  0  0
 14  6  1  0  0  0
  7  8  1  0  0  0
  8  9  2  0  0  0
 10  8  1  0  0  0
 11 10  1  0  0  0
 12 11  1  0  0  0
 13 12  1  0  0  0
 14 13  1  0  0  0
 15 14  1  0  0  0
 16 15  1  0  0  0
 17 16  1  0  0  0
 18 17  1  0  0  0
 19 18  1  0  0  0
 19 20  2  0  0  0
 21 19  1  0  0  0
 22 21  1  0  0  0
 22 23  2  0  0  0
 22 24  2  0  0  0
 25 22  1  0  0  0
 26 25  1  0  0  0
 27 26  1  0  0  0
 28 27  1  0  0  0
 29 27  1  0  0  0
 31 28  1  0  0  0
 30 29  1  0  0  0
 31 30  1  0  0  0
 30 37  1  0  0  0
 31 32  1  0  0  0
 35 36  4  0  0  0
  1 38  1  0  0  0
  4 39  1  0  0  0
  4 40  1  0  0  0
  5 41  1  0  0  0
  6 42  1  0  0  0
  7 43  1  0  0  0
 10 44  1  0  0  0
 11 45  1  0  0  0
 12 46  1  0  0  0
 12 47  1  0  0  0
 14 48  1  0  0  0
 15 49  1  0  0  0
 15 50  1  0  0  0
 16 51  1  0  0  0
 16 52  1  0  0  0
 17 53  1  0  0  0
 17 54  1  0  0  0
 18 55  1  0  0  0
 18 56  1  0  0  0
 21 57  1  0  0  0
 25 58  1  0  0  0
 26 59  1  0  0  0
 26 60  1  0  0  0
 27 61  1  0  0  0
 29 62  1  0  0  0
 29 63  1  0  0  0
 30 64  1  0  0  0
 31 65  1  0  0  0
 37 66  1  0  0  0
M  END
$$$$
