### 
### Created by X-TOOL on Mon Sep 10 21:13:24 2018
### 

@<TRIPOS>MOLECULE
4xu2_ligand
   66    70     1     0     0
SMALL
GAST_HUCK


@<TRIPOS>ATOM
      1 C2         -8.0470   -0.8140   11.9870 C.ar      1 44Q         0.0533
      2 C4         -5.7990   -0.4330   11.4900 C.ar      1 44Q         0.1613
      3 C5         -5.4650   -0.6780   12.8090 C.ar      1 44Q         0.1045
      4 N6         -6.1850   -1.2420   15.0090 N.pl3     1 44Q        -0.3152
      5 C8         -3.6490   -0.2170   11.6970 C.2       1 44Q         0.1123
      6 CBI        -2.0960  -10.0150   13.8730 C.3       1 44Q         0.0775
      7 NAU        -0.9020   -9.2940   13.4720 N.am      1 44Q        -0.2668
      8 CBA         0.0730   -9.4240   14.3670 C.2       1 44Q         0.2580
      9 OAC         1.1450   -8.8430   14.3300 O.2       1 44Q        -0.4008
     10 NAT        -0.2890  -10.2580   15.3310 N.am      1 44Q        -0.2671
     11 CBF        -1.7000  -10.5560   15.2470 C.3       1 44Q         0.0750
     12 CAO        -2.3930   -9.8220   16.3840 C.3       1 44Q         0.0190
     13 SAY        -3.4430   -8.6310   15.6350 S.3       1 44Q        -0.1527
     14 CBH        -3.3220   -9.1080   13.9450 C.3       1 44Q         0.0302
     15 CAK        -3.2250   -7.9130   13.0030 C.3       1 44Q        -0.0388
     16 CAI        -3.5100   -8.3540   11.5690 C.3       1 44Q        -0.0499
     17 CAH        -3.7100   -7.1620   10.6370 C.3       1 44Q        -0.0360
     18 CAJ        -4.0700   -7.6000    9.2210 C.3       1 44Q         0.0388
     19 CAZ        -4.4600   -6.3940    8.3920 C.2       1 44Q         0.1971
     20 OAB        -5.5720   -5.9060    8.5050 O.2       1 44Q        -0.3954
     21 NAV        -3.5380   -5.9150    7.5560 N.am      1 44Q        -0.1416
     22 SBK        -3.9520   -4.9560    6.3400 S.o2      1 44Q         0.1391
     23 OAD        -5.1550   -5.4400    5.7230 O.2       1 44Q        -0.1307
     24 OAE        -2.9100   -4.9240    5.3510 O.2       1 44Q        -0.1307
     25 NAW        -4.2160   -3.4610    6.8410 N.am      1 44Q        -0.2289
     26 CAN        -3.4270   -2.8450    7.8890 C.3       1 44Q         0.0546
     27 CBE        -3.7020   -1.3490    7.8220 C.3       1 44Q         0.0815
     28 OAX        -4.8440   -1.0100    8.6150 O.3       1 44Q        -0.3401
     29 CAL        -2.5360   -0.5310    8.3590 C.3       1 44Q         0.0064
     30 CAM        -3.2040    0.6640    9.0160 C.3       1 44Q         0.1128
     31 CBG        -4.5940    0.1690    9.3870 C.3       1 44Q         0.1984
     32 N9         -4.6720   -0.1540   10.8320 N.pl3     1 44Q        -0.1920
     33 N7         -4.1270   -0.5400   12.9200 N.2       1 44Q        -0.2958
     34 N3         -7.0930   -0.5040   11.0990 N.ar      1 44Q        -0.2714
     35 N1         -7.7500   -1.0540   13.2720 N.ar      1 44Q        -0.2698
     36 C6         -6.4730   -0.9940   13.7090 C.ar      1 44Q         0.1298
     37 O1         -3.3430    1.7090    8.0450 O.3       1 44Q        -0.3862
     38 H1         -9.0789   -0.8719   11.6601 H         1 44Q         0.0996
     39 H2         -6.9409   -1.4756   15.6685 H         1 44Q         0.1820
     40 H3         -5.2100   -1.1970   15.3382 H         1 44Q         0.1820
     41 H4         -2.6028   -0.0372   11.4538 H         1 44Q         0.1349
     42 H5         -2.3057  -10.8391   13.1753 H         1 44Q         0.0587
     43 H6         -0.8223   -8.7649   12.6272 H         1 44Q         0.1849
     44 H7          0.3302  -10.6303   16.0224 H         1 44Q         0.1849
     45 H8         -1.8979  -11.6358   15.3168 H         1 44Q         0.0584
     46 H9         -1.6501   -9.3250   17.0252 H         1 44Q         0.0399
     47 H10        -2.9852  -10.5262   16.9868 H         1 44Q         0.0399
     48 H11        -4.2164   -9.6842   13.6657 H         1 44Q         0.0435
     49 H12        -2.2126   -7.4866   13.0585 H         1 44Q         0.0277
     50 H13        -3.9604   -7.1520   13.3030 H         1 44Q         0.0277
     51 H14        -4.4219   -8.9691   11.5605 H         1 44Q         0.0267
     52 H15        -2.6612   -8.9515   11.2052 H         1 44Q         0.0267
     53 H16        -2.7787   -6.5777   10.6023 H         1 44Q         0.0290
     54 H17        -4.5222   -6.5342   11.0321 H         1 44Q         0.0290
     55 H18        -4.9143   -8.3039    9.2605 H         1 44Q         0.0503
     56 H19        -3.2019   -8.0940    8.7602 H         1 44Q         0.0503
     57 H20        -2.5769   -6.1569    7.6893 H         1 44Q         0.2159
     58 H21        -4.9512   -2.9325    6.4165 H         1 44Q         0.1690
     59 H22        -2.3574   -3.0415    7.7235 H         1 44Q         0.0501
     60 H23        -3.7251   -3.2416    8.8708 H         1 44Q         0.0501
     61 H24        -3.8867   -1.0738    6.7731 H         1 44Q         0.0614
     62 H25        -1.8737   -0.2094    7.5418 H         1 44Q         0.0317
     63 H26        -1.9571   -1.1094    9.0941 H         1 44Q         0.0317
     64 H27        -2.6436    1.0134    9.8957 H         1 44Q         0.0650
     65 H28        -5.3399    0.9410    9.1470 H         1 44Q         0.0995
     66 H29        -3.8539    2.4187    8.4162 H         1 44Q         0.2100
@<TRIPOS>BOND
     1   34    1 ar 
     2    1   35 ar 
     3    2    3 ar 
     4   32    2 1  
     5    2   34 ar 
     6   33    3 1  
     7    3   36 ar 
     8   36    4 1  
     9   32    5 1  
    10    5   33 2  
    11    6    7 1  
    12    6   11 1  
    13   14    6 1  
    14    7    8 am 
    15    8    9 2  
    16   10    8 am 
    17   11   10 1  
    18   12   11 1  
    19   13   12 1  
    20   14   13 1  
    21   15   14 1  
    22   16   15 1  
    23   17   16 1  
    24   18   17 1  
    25   19   18 1  
    26   19   20 2  
    27   21   19 am 
    28   22   21 am 
    29   22   23 2  
    30   22   24 2  
    31   25   22 am 
    32   26   25 1  
    33   27   26 1  
    34   28   27 1  
    35   29   27 1  
    36   31   28 1  
    37   30   29 1  
    38   31   30 1  
    39   30   37 1  
    40   31   32 1  
    41   35   36 ar 
    42    1   38 1  
    43    4   39 1  
    44    4   40 1  
    45    5   41 1  
    46    6   42 1  
    47    7   43 1  
    48   10   44 1  
    49   11   45 1  
    50   12   46 1  
    51   12   47 1  
    52   14   48 1  
    53   15   49 1  
    54   15   50 1  
    55   16   51 1  
    56   16   52 1  
    57   17   53 1  
    58   17   54 1  
    59   18   55 1  
    60   18   56 1  
    61   21   57 1  
    62   25   58 1  
    63   26   59 1  
    64   26   60 1  
    65   27   61 1  
    66   29   62 1  
    67   29   63 1  
    68   30   64 1  
    69   31   65 1  
    70   37   66 1  
@<TRIPOS>SUBSTRUCTURE
     1 44Q         1

