### 
### Created by X-TOOL on Mon Sep 10 21:13:19 2018
### 

@<TRIPOS>MOLECULE
4llk_ligand
   20    21     1     0     0
SMALL
GAST_HUCK


@<TRIPOS>ATOM
      1 CAN         3.6590   14.0190   40.6910 C.3       1 MEW         0.0289
      2 CAT         3.9130   13.5330   42.0970 C.2       1 MEW         0.1369
      3 NAO         3.5340   14.2930   43.1470 N.pl3     1 MEW        -0.2280
      4 CAV         3.7640   13.8490   44.4160 C.ar      1 MEW         0.0955
      5 CAK         3.3510   14.6120   45.5020 C.ar      1 MEW        -0.0287
      6 CAG         3.5990   14.1330   46.7980 C.ar      1 MEW        -0.0654
      7 CAH         4.2290   12.9010   47.0200 C.ar      1 MEW        -0.0663
      8 CAL         4.6390   12.1310   45.9320 C.ar      1 MEW        -0.0511
      9 CAW         4.3940   12.6160   44.6360 C.ar      1 MEW         0.0601
     10 CAU         4.7790   11.8710   43.5210 C.2       1 MEW         0.1562
     11 OAC         5.3340   10.7940   43.6590 O.2       1 MEW        -0.4033
     12 NAQ         4.5240   12.3480   42.2800 N.2       1 MEW        -0.2698
     13 H           3.1555   14.9964   40.7263 H         1 MEW         0.0545
     14 H           3.0197   13.2961   40.1630 H         1 MEW         0.0545
     15 H           4.6165   14.1188   40.1589 H         1 MEW         0.0545
     16 H           3.0745   15.2015   42.9907 H         1 MEW         0.2342
     17 H           2.8467   15.5596   45.3509 H         1 MEW         0.0562
     18 H           3.2953   14.7316   47.6492 H         1 MEW         0.0627
     19 H           4.3966   12.5487   48.0314 H         1 MEW         0.0544
     20 H           5.1357   11.1794   46.0826 H         1 MEW         0.0640
@<TRIPOS>BOND
     1    1    2 1  
     2    2    3 1  
     3    2   12 2  
     4    3    4 1  
     5    4    5 ar 
     6    4    9 ar 
     7    5    6 ar 
     8    6    7 ar 
     9    7    8 ar 
    10    8    9 ar 
    11    9   10 1  
    12   10   11 2  
    13   10   12 1  
    14    1   13 1  
    15    1   14 1  
    16    1   15 1  
    17    3   16 1  
    18    5   17 1  
    19    6   18 1  
    20    7   19 1  
    21    8   20 1  
@<TRIPOS>SUBSTRUCTURE
     1 MEW         1

