4llk_ligand
  -I-interpret- 

 20 21  0  0  0  0  0  0  0  0999 V2000
    3.6590   14.0190   40.6910 C   0  0  0  0  0
    3.9130   13.5330   42.0970 C   0  0  0  0  0
    3.5340   14.2930   43.1470 N   0  0  0  0  0
    3.7640   13.8490   44.4160 C   0  0  0  0  0
    3.3510   14.6120   45.5020 C   0  0  0  0  0
    3.5990   14.1330   46.7980 C   0  0  0  0  0
    4.2290   12.9010   47.0200 C   0  0  0  0  0
    4.6390   12.1310   45.9320 C   0  0  0  0  0
    4.3940   12.6160   44.6360 C   0  0  0  0  0
    4.7790   11.8710   43.5210 C   0  0  0  0  0
    5.3340   10.7940   43.6590 O   0  0  0  0  0
    4.5240   12.3480   42.2800 N   0  0  0  0  0
    4.6085   14.1175   40.1649 H   0  0  0  0  0
    3.0255   13.3019   40.1689 H   0  0  0  0  0
    3.1601   14.9875   40.7273 H   0  0  0  0  0
    3.0790   15.1927   42.9922 H   0  0  0  0  0
    2.8439   15.5648   45.3501 H   0  0  0  0  0
    3.2936   14.7349   47.6539 H   0  0  0  0  0
    4.3975   12.5468   48.0370 H   0  0  0  0  0
    5.1385   11.1741   46.0835 H   0  0  0  0  0
  1  2  1  0  0  0
  2  3  1  0  0  0
  2 12  2  0  0  0
  3  4  1  0  0  0
  4  5  4  0  0  0
  4  9  4  0  0  0
  5  6  4  0  0  0
  6  7  4  0  0  0
  7  8  4  0  0  0
  8  9  4  0  0  0
  9 10  1  0  0  0
 10 11  2  0  0  0
 10 12  1  0  0  0
  1 13  1  0  0  0
  1 14  1  0  0  0
  1 15  1  0  0  0
  3 16  1  0  0  0
  5 17  1  0  0  0
  6 18  1  0  0  0
  7 19  1  0  0  0
  8 20  1  0  0  0
M  END
$$$$
