1atl_ligand
  -I-interpret- 

 48 48  0  0  0  0  0  0  0  0999 V2000
   -2.8970   23.6890   47.6030 C   0  0  0  0  0
   -2.1200   24.3840   48.2730 O   0  0  0  0  0
   -2.9540   22.1570   47.7440 C   0  0  0  0  0
   -1.5610   21.5410   47.8970 C   0  0  0  0  0
   -0.5940   21.4250   46.3610 S   0  0  0  0  0
   -3.7880   21.7840   48.9780 C   0  0  0  0  0
   -5.1150   22.5330   49.2110 C   0  0  0  0  0
   -5.6870   22.1630   50.5840 C   0  0  0  0  0
   -6.1260   22.2290   48.0990 C   0  0  0  0  0
   -3.7810   24.2020   46.7590 N   0  0  0  0  0
   -3.9030   25.6280   46.5080 C   0  0  0  0  0
   -5.1290   25.8990   45.6220 C   0  0  0  0  0
   -5.6560   27.0220   45.6040 O   0  0  0  0  0
   -2.5980   26.1750   45.9030 C   0  0  0  0  0
   -2.0560   25.4460   44.6900 C   0  0  0  0  0
   -2.6830   24.3120   44.1910 C   0  0  0  0  0
   -0.9260   25.9200   44.0220 C   0  0  0  0  0
   -2.2120   23.6720   43.0650 C   0  0  0  0  0
   -0.4470   25.2920   42.8960 C   0  0  0  0  0
   -1.0940   24.1600   42.4180 C   0  0  0  0  0
   -0.6400   23.4970   41.2910 O   0  0  0  0  0
   -5.6140   24.9330   45.0030 O   0  0  0  0  0
   -1.1700   23.2880   39.9810 C   0  0  0  0  0
   -3.4068   21.7648   46.8334 H   0  0  0  0  0
   -1.7068   20.5212   48.2533 H   0  0  0  0  0
   -1.0029   22.1917   48.5702 H   0  0  0  0  0
    0.5888   20.8767   46.6240 H   0  0  0  0  0
   -3.1621   22.0330   49.8350 H   0  0  0  0  0
   -4.0676   20.7406   48.8323 H   0  0  0  0  0
   -4.9162   23.6045   49.1885 H   0  0  0  0  0
   -6.5938   22.7399   50.7659 H   0  0  0  0  0
   -5.9218   21.0988   50.6036 H   0  0  0  0  0
   -4.9507   22.3882   51.3556 H   0  0  0  0  0
   -6.3630   21.1651   48.1061 H   0  0  0  0  0
   -7.0350   22.8062   48.2684 H   0  0  0  0  0
   -5.6962   22.5004   47.1348 H   0  0  0  0  0
   -4.4049   23.5659   46.2624 H   0  0  0  0  0
   -4.0611   26.1579   47.4473 H   0  0  0  0  0
   -1.8399   26.0731   46.6795 H   0  0  0  0  0
   -2.8216   27.1886   45.5704 H   0  0  0  0  0
   -3.5642   23.9207   44.6994 H   0  0  0  0  0
   -0.4134   26.8046   44.3998 H   0  0  0  0  0
   -2.7197   22.7847   42.6869 H   0  0  0  0  0
    0.4332   25.6796   42.3831 H   0  0  0  0  0
   -5.0648   24.1578   45.1408 H   0  0  0  0  0
   -2.1197   22.7582   40.0549 H   0  0  0  0  0
   -1.3268   24.2514   39.4959 H   0  0  0  0  0
   -0.4665   22.6955   39.3961 H   0  0  0  0  0
  1  3  1  0  0  0
  1  2  2  0  0  0
  3  6  1  0  0  0
  3  4  1  0  0  0
  4  5  1  0  0  0
  6  7  1  0  0  0
  7  9  1  0  0  0
  7  8  1  0  0  0
 11 12  1  0  0  0
 11 14  1  0  0  0
 10 11  1  0  0  0
 14 15  1  0  0  0
 15 17  4  0  0  0
 15 16  4  0  0  0
 16 18  4  0  0  0
 18 20  4  0  0  0
 20 21  1  0  0  0
 19 20  4  0  0  0
 17 19  4  0  0  0
 12 22  1  0  0  0
 12 13  2  0  0  0
  1 10  1  0  0  0
 21 23  1  0  0  0
  3 24  1  0  0  0
  4 25  1  0  0  0
  4 26  1  0  0  0
  5 27  1  0  0  0
  6 28  1  0  0  0
  6 29  1  0  0  0
  7 30  1  0  0  0
  8 31  1  0  0  0
  8 32  1  0  0  0
  8 33  1  0  0  0
  9 34  1  0  0  0
  9 35  1  0  0  0
  9 36  1  0  0  0
 10 37  1  0  0  0
 11 38  1  0  0  0
 14 39  1  0  0  0
 14 40  1  0  0  0
 16 41  1  0  0  0
 17 42  1  0  0  0
 18 43  1  0  0  0
 19 44  1  0  0  0
 22 45  1  0  0  0
 23 46  1  0  0  0
 23 47  1  0  0  0
 23 48  1  0  0  0
M  END
$$$$
