### 
### Created by X-TOOL on Fri Nov 18 11:59:26 2016
### 

@<TRIPOS>MOLECULE
1atl_ligand
   47    47     1     0     0
SMALL
GAST_HUCK


@<TRIPOS>ATOM
      1 C1         -2.8970   23.6890   47.6030 C.2       1 SLE         0.1816
      2 O1         -2.1200   24.3840   48.2730 O.2       1 SLE        -0.3966
      3 C2         -2.9540   22.1570   47.7440 C.3       1 SLE         0.0577
      4 CH         -1.5610   21.5410   47.8970 C.3       1 SLE         0.0104
      5 S          -0.5940   21.4250   46.3610 S.3       1 SLE        -0.1756
      6 C3         -3.7880   21.7840   48.9780 C.3       1 SLE        -0.0301
      7 C4         -5.1150   22.5330   49.2110 C.3       1 SLE        -0.0444
      8 CM         -5.6870   22.1630   50.5840 C.3       1 SLE        -0.0625
      9 C5         -6.1260   22.2290   48.0990 C.3       1 SLE        -0.0625
     10 N          -3.7810   24.2020   46.7590 N.am      1 SLE        -0.2695
     11 CA         -3.9030   25.6280   46.5080 C.3       1 SLE         0.1024
     12 C          -5.1290   25.8990   45.6220 C.2       1 SLE         0.0619
     13 O          -5.6560   27.0220   45.6040 O.co2     1 SLE        -0.5665
     14 CB         -2.5980   26.1750   45.9030 C.3       1 SLE         0.0108
     15 CG         -2.0560   25.4460   44.6900 C.ar      1 SLE        -0.0499
     16 CD1        -2.6830   24.3120   44.1910 C.ar      1 SLE        -0.0686
     17 CD2        -0.9260   25.9200   44.0220 C.ar      1 SLE        -0.0686
     18 CE1        -2.2120   23.6720   43.0650 C.ar      1 SLE        -0.0396
     19 CE2        -0.4470   25.2920   42.8960 C.ar      1 SLE        -0.0396
     20 CZ         -1.0940   24.1600   42.4180 C.ar      1 SLE         0.0837
     21 OH         -0.6400   23.4970   41.2910 O.3       1 SLE        -0.3257
     22 OXT        -5.6140   24.9330   45.0030 O.co2     1 SLE        -0.5665
     23 C          -1.1700   23.2880   39.9810 C.3       1 SLE         0.0579
     24 H1         -3.4293   21.7397   46.8441 H         1 SLE         0.0546
     25 H2         -1.6805   20.5251   48.3016 H         1 SLE         0.0401
     26 H3         -0.9934   22.1557   48.6110 H         1 SLE         0.0401
     27 H4          0.3025   21.0094   46.5603 H         1 SLE         0.1018
     28 H5         -3.1569   21.9549   49.8626 H         1 SLE         0.0295
     29 H6         -4.0269   20.7132   48.8993 H         1 SLE         0.0295
     30 H7         -4.9089   23.6135   49.2004 H         1 SLE         0.0297
     31 H8         -6.6333   22.7005   50.7439 H         1 SLE         0.0232
     32 H9         -4.9687   22.4439   51.3683 H         1 SLE         0.0232
     33 H10        -5.8696   21.0791   50.6252 H         1 SLE         0.0232
     34 H11        -5.6933   22.5025   47.1253 H         1 SLE         0.0232
     35 H12        -7.0439   22.8110   48.2688 H         1 SLE         0.0232
     36 H13        -6.3660   21.1555   48.1051 H         1 SLE         0.0232
     37 H14        -4.3926   23.5784   46.2722 H         1 SLE         0.1876
     38 H15        -4.0647   26.1357   47.4703 H         1 SLE         0.0747
     39 H16        -1.8263   26.1398   46.6861 H         1 SLE         0.0446
     40 H17        -2.7774   27.2204   45.6117 H         1 SLE         0.0446
     41 H18        -3.5594   23.9228   44.6966 H         1 SLE         0.0530
     42 H19        -0.4162   26.7998   44.3977 H         1 SLE         0.0530
     43 H20        -2.7169   22.7895   42.6890 H         1 SLE         0.0525
     44 H21         0.4283   25.6775   42.3859 H         1 SLE         0.0525
     45 H22        -0.4609   22.6901   39.3897 H         1 SLE         0.0575
     46 H23        -1.3286   24.2596   39.4903 H         1 SLE         0.0575
     47 H24        -2.1285   22.7533   40.0542 H         1 SLE         0.0575
@<TRIPOS>BOND
     1    1    3 1  
     2    1    2 2  
     3    3    6 1  
     4    3    4 1  
     5    4    5 1  
     6    6    7 1  
     7    7    9 1  
     8    7    8 1  
     9   11   12 1  
    10   11   14 1  
    11   10   11 1  
    12   14   15 1  
    13   15   17 ar 
    14   15   16 ar 
    15   16   18 ar 
    16   18   20 ar 
    17   20   21 1  
    18   19   20 ar 
    19   17   19 ar 
    20   12   22 ar 
    21   12   13 ar 
    22    1   10 am 
    23   21   23 1  
    24    3   24 1  
    25    4   25 1  
    26    4   26 1  
    27    5   27 1  
    28    6   28 1  
    29    6   29 1  
    30    7   30 1  
    31    8   31 1  
    32    8   32 1  
    33    8   33 1  
    34    9   34 1  
    35    9   35 1  
    36    9   36 1  
    37   10   37 1  
    38   11   38 1  
    39   14   39 1  
    40   14   40 1  
    41   16   41 1  
    42   17   42 1  
    43   18   43 1  
    44   19   44 1  
    45   23   45 1  
    46   23   46 1  
    47   23   47 1  
@<TRIPOS>SUBSTRUCTURE
     1 SLE         1

