1n4k_ligand
  -I-interpret- 

 39 39  0  0  0  0  0  0  0  0999 V2000
   23.1630   -2.1100   10.2630 C   0  0  0  0  0
   22.5710   -3.4900   10.6800 C   0  0  0  0  0
   22.9430   -3.8020   12.1310 C   0  0  0  0  0
   22.3860   -2.6940   13.0500 C   0  0  0  0  0
   22.9670   -1.3280   12.6370 C   0  0  0  0  0
   22.6040   -0.9950   11.1750 C   0  0  0  0  0
   22.8100   -1.7080    8.8800 O   0  0  0  0  0
   21.1440   -3.4870   10.5450 O   0  0  0  0  0
   22.3880   -5.0460   12.4990 O   0  0  0  0  0
   22.7500   -3.0220   14.4480 O   0  0  0  0  0
   22.4040   -0.2860   13.5190 O   0  0  0  0  0
   23.1590    0.2590   10.7890 O   0  0  0  0  0
   23.6820   -2.0580    7.5940 P   0  0  0  0  0
   22.9530   -1.4340    6.4570 O   0  0  0  0  0
   23.7090   -3.5430    7.5680 O   0  0  0  0  0
   24.9660   -1.4700    7.9690 O   0  0  0  0  0
   21.7740   -3.5700   15.5870 P   0  0  0  0  0
   20.7220   -2.5200   15.5470 O   0  0  0  0  0
   21.3360   -4.8620   15.0640 O   0  0  0  0  0
   22.5570   -3.6840   16.8440 O   0  0  0  0  0
   23.1580    0.9460   14.2040 P   0  0  0  0  0
   22.0260    1.5670   14.9390 O   0  0  0  0  0
   24.2190    0.3100   15.0370 O   0  0  0  0  0
   23.6350    1.6890   13.0430 O   0  0  0  0  0
   24.2434   -2.2282   10.3455 H   0  0  0  0  0
   22.9876   -4.2545   10.0241 H   0  0  0  0  0
   24.0275   -3.8456   12.2312 H   0  0  0  0  0
   21.3012   -2.6359   12.9615 H   0  0  0  0  0
   24.0526   -1.3662   12.7270 H   0  0  0  0  0
   21.5200   -0.9321   11.0800 H   0  0  0  0  0
   20.9102   -3.2913    9.6347 H   0  0  0  0  0
   22.7364   -5.7327   11.9257 H   0  0  0  0  0
   22.9213    0.4460    9.8779 H   0  0  0  0  0
   22.1302   -1.9058    6.3083 H   0  0  0  0  0
   22.8434   -3.8733    7.3167 H   0  0  0  0  0
   21.0748   -1.7014   15.9033 H   0  0  0  0  0
   22.8162   -2.8079   17.1388 H   0  0  0  0  0
   21.7837    1.0091   15.6817 H   0  0  0  0  0
   23.8119   -0.1532   15.7728 H   0  0  0  0  0
  1  7  1  0  0  0
  1  6  1  0  0  0
  1  2  1  0  0  0
  2  8  1  0  0  0
  2  3  1  0  0  0
  3  9  1  0  0  0
  3  4  1  0  0  0
  4 10  1  0  0  0
  4  5  1  0  0  0
  5 11  1  0  0  0
  5  6  1  0  0  0
  6 12  1  0  0  0
 11 21  1  0  0  0
 21 24  2  0  0  0
 21 23  1  0  0  0
 21 22  1  0  0  0
 10 17  1  0  0  0
 17 20  1  0  0  0
 17 19  2  0  0  0
 17 18  1  0  0  0
  7 13  1  0  0  0
 13 16  2  0  0  0
 13 15  1  0  0  0
 13 14  1  0  0  0
  1 25  1  0  0  0
  2 26  1  0  0  0
  3 27  1  0  0  0
  4 28  1  0  0  0
  5 29  1  0  0  0
  6 30  1  0  0  0
  8 31  1  0  0  0
  9 32  1  0  0  0
 12 33  1  0  0  0
 14 34  1  0  0  0
 15 35  1  0  0  0
 18 36  1  0  0  0
 20 37  1  0  0  0
 22 38  1  0  0  0
 23 39  1  0  0  0
M  END
$$$$
