4ipj_ligand
  -I-interpret- 

 15 14  0  0  0  0  0  0  0  0999 V2000
   95.7030  -21.5420   52.2720 C   0  0  0  0  0
   95.4430  -22.7450   52.0020 O   0  0  0  0  0
   94.8080  -20.7380   52.6530 O   0  0  0  0  0
   97.1000  -21.0580   52.1110 C   0  0  0  0  0
   97.1410  -20.1260   51.0460 O   0  0  0  0  0
   97.5540  -20.4410   53.4350 C   0  0  0  0  0
   99.0520  -20.2280   53.4410 C   0  0  0  0  0
   99.6260  -19.5100   54.2900 O   0  0  0  0  0
   99.7600  -20.7860   52.5870 O   0  0  0  0  0
   95.1994  -19.8753   52.8082 H   0  0  0  0  0
   97.7799  -21.8738   51.8654 H   0  0  0  0  0
   96.8494  -20.5530   50.2372 H   0  0  0  0  0
   97.2915  -21.1186   54.2475 H   0  0  0  0  0
   97.0609  -19.4772   53.5617 H   0  0  0  0  0
   98.9729  -19.1393   54.8881 H   0  0  0  0  0
  1  2  2  0  0  0
  1  3  1  0  0  0
  1  4  1  0  0  0
  4  5  1  0  0  0
  4  6  1  0  0  0
  6  7  1  0  0  0
  7  8  1  0  0  0
  7  9  2  0  0  0
  3 10  1  0  0  0
  4 11  1  0  0  0
  5 12  1  0  0  0
  6 13  1  0  0  0
  6 14  1  0  0  0
  8 15  1  0  0  0
M  END
$$$$
