### 
### Created by X-TOOL on Mon Sep 10 21:13:13 2018
### 

@<TRIPOS>MOLECULE
4ipj_ligand
   13    12     1     0     0
SMALL
GAST_HUCK


@<TRIPOS>ATOM
      1 C1         95.7030  -21.5420   52.2720 C.2       1 LMR         0.0650
      2 O1A        95.4430  -22.7450   52.0020 O.co2     1 LMR        -0.5662
      3 O1B        94.8080  -20.7380   52.6530 O.co2     1 LMR        -0.5662
      4 C2         97.1000  -21.0580   52.1110 C.3       1 LMR         0.1185
      5 O2         97.1410  -20.1260   51.0460 O.3       1 LMR        -0.3760
      6 C3         97.5540  -20.4410   53.4350 C.3       1 LMR         0.0381
      7 C4         99.0520  -20.2280   53.4410 C.2       1 LMR         0.0389
      8 O4A        99.6260  -19.5100   54.2900 O.co2     1 LMR        -0.5688
      9 O4B        99.7600  -20.7860   52.5870 O.co2     1 LMR        -0.5688
     10 H1         97.7583  -21.9050   51.8677 H         1 LMR         0.0782
     11 H2         98.0306  -19.8114   50.9361 H         1 LMR         0.2125
     12 H3         97.2822  -21.1161   54.2598 H         1 LMR         0.0474
     13 H4         97.0512  -19.4724   53.5730 H         1 LMR         0.0474
@<TRIPOS>BOND
     1    1    2 ar 
     2    1    3 ar 
     3    1    4 1  
     4    4    5 1  
     5    4    6 1  
     6    6    7 1  
     7    7    8 ar 
     8    7    9 ar 
     9    4   10 1  
    10    5   11 1  
    11    6   12 1  
    12    6   13 1  
@<TRIPOS>SUBSTRUCTURE
     1 LMR         1

