### 
### Created by X-TOOL on Mon Sep 10 21:12:57 2018
### 

@<TRIPOS>MOLECULE
2qi7_ligand
   77    78     1     0     0
SMALL
GAST_HUCK


@<TRIPOS>ATOM
      1 O22        21.2560   29.8260   12.1740 O.2       1 MZ9        -0.3969
      2 C21        21.2510   28.7280   12.7060 C.2       1 MZ9         0.1787
      3 C22        22.2000   27.6750   12.1930 C.3       1 MZ9         0.0530
      4 C23        21.7890   27.2340   10.7920 C.3       1 MZ9         0.0379
      5 C24        21.5100   25.7500   10.6490 C.2       1 MZ9         0.1069
      6 O25        21.8010   24.9340   11.5240 O.2       1 MZ9        -0.3915
      7 C26        20.8560   25.3410    9.3460 C.3       1 MZ9         0.0184
      8 C27        20.6960   23.8480    9.2000 C.3       1 MZ9        -0.0492
      9 N20        20.4650   28.3490   13.7160 N.am      1 MZ9        -0.2793
     10 C19        19.4480   29.1810   14.3330 C.3       1 MZ9         0.0788
     11 C32        18.1330   28.4020   14.3040 C.3       1 MZ9         0.0064
     12 C38        17.8240   28.0230   12.8680 C.ar      1 MZ9        -0.0408
     13 C37        17.4760   29.0010   11.9400 C.ar      1 MZ9        -0.0603
     14 C36        17.2020   28.6500   10.6180 C.ar      1 MZ9        -0.0686
     15 C35        17.2770   27.3170   10.2210 C.ar      1 MZ9        -0.0687
     16 C34        17.6280   26.3430   11.1410 C.ar      1 MZ9        -0.0686
     17 C33        17.9030   26.6880   12.4640 C.ar      1 MZ9        -0.0603
     18 C17        19.8990   29.5950   15.7320 C.3       1 MZ9         0.0968
     19 O18        19.8750   28.4780   16.6370 O.3       1 MZ9        -0.3877
     20 C16        19.0660   30.7400   16.3150 C.3       1 MZ9         0.0578
     21 N11        19.3420   31.9750   15.5460 N.am      1 MZ9        -0.2324
     22 C12        20.0580   32.9990   16.3450 C.3       1 MZ9         0.0322
     23 C13        21.5480   32.6740   16.4230 C.3       1 MZ9        -0.0270
     24 C14        22.2140   32.6040   15.0450 C.3       1 MZ9        -0.0610
     25 C15        22.2520   33.6640   17.3550 C.3       1 MZ9        -0.0518
     26 C18        22.1780   35.1020   16.8960 C.3       1 MZ9        -0.0650
     27 S8         18.0080   32.5870   14.8490 S.o2      1 MZ9         0.0657
     28 O10        17.2180   31.5270   14.2910 O.2       1 MZ9        -0.1515
     29 O9         18.4760   33.4340   13.7860 O.2       1 MZ9        -0.1515
     30 C5         17.1370   33.4420   15.9060 C.ar      1 MZ9         0.0971
     31 C6         17.3750   34.8050   16.0790 C.ar      1 MZ9        -0.0440
     32 C7         16.6490   35.5590   16.9960 C.ar      1 MZ9        -0.0313
     33 C4         16.1490   32.8390   16.6790 C.ar      1 MZ9        -0.0440
     34 C3         15.4140   33.5900   17.6040 C.ar      1 MZ9        -0.0313
     35 C2         15.6530   34.9500   17.7710 C.ar      1 MZ9         0.0908
     36 O19        14.9060   35.6310   18.7060 O.3       1 MZ9        -0.3212
     37 C20        14.9480   37.0510   18.9050 C.3       1 MZ9         0.0594
     38 H1         22.1790   26.8068   12.8681 H         1 MZ9         0.0528
     39 H2         23.2186   28.0889   12.1595 H         1 MZ9         0.0528
     40 H3         22.6007   27.4980   10.0981 H         1 MZ9         0.0519
     41 H4         20.8765   27.7821   10.5145 H         1 MZ9         0.0519
     42 H5         21.4752   25.7085    8.5144 H         1 MZ9         0.0491
     43 H6         19.8601   25.8052    9.2947 H         1 MZ9         0.0491
     44 H7         20.2167   23.6232    8.2358 H         1 MZ9         0.0255
     45 H8         20.0697   23.4645   10.0190 H         1 MZ9         0.0255
     46 H9         21.6848   23.3677    9.2387 H         1 MZ9         0.0255
     47 H10        20.5857   27.4232   14.0742 H         1 MZ9         0.1857
     48 H11        19.3195   30.0960   13.7361 H         1 MZ9         0.0605
     49 H12        17.3224   29.0289   14.7040 H         1 MZ9         0.0449
     50 H13        18.2282   27.4921   14.9147 H         1 MZ9         0.0449
     51 H14        17.4178   30.0393   12.2460 H         1 MZ9         0.0557
     52 H15        16.9306   29.4149    9.8994 H         1 MZ9         0.0599
     53 H16        17.0612   27.0426    9.1947 H         1 MZ9         0.0559
     54 H17        17.6893   25.3061   10.8308 H         1 MZ9         0.0599
     55 H18        18.1779   25.9206   13.1786 H         1 MZ9         0.0557
     56 H19        20.9384   29.9457   15.6510 H         1 MZ9         0.0634
     57 H20        18.9907   28.1352   16.6918 H         1 MZ9         0.2100
     58 H21        19.3372   30.8938   17.3699 H         1 MZ9         0.0504
     59 H22        17.9967   30.4920   16.2436 H         1 MZ9         0.0504
     60 H23        19.6393   33.0221   17.3619 H         1 MZ9         0.0480
     61 H24        19.9270   33.9834   15.8720 H         1 MZ9         0.0480
     62 H25        21.6413   31.6748   16.8734 H         1 MZ9         0.0314
     63 H26        23.2816   32.3677   15.1653 H         1 MZ9         0.0233
     64 H27        22.1082   33.5738   14.5369 H         1 MZ9         0.0233
     65 H28        21.7305   31.8202   14.4435 H         1 MZ9         0.0233
     66 H29        23.3118   33.3781   17.4260 H         1 MZ9         0.0266
     67 H30        21.7860   33.5942   18.3490 H         1 MZ9         0.0266
     68 H31        22.7050   35.7445   17.6167 H         1 MZ9         0.0230
     69 H32        21.1247   35.4122   16.8301 H         1 MZ9         0.0230
     70 H33        22.6505   35.1961   15.9071 H         1 MZ9         0.0230
     71 H34        18.1429   35.2882   15.4858 H         1 MZ9         0.0608
     72 H35        16.8539   36.6173   17.1108 H         1 MZ9         0.0542
     73 H36        15.9472   31.7802   16.5639 H         1 MZ9         0.0608
     74 H37        14.6481   33.1049   18.1983 H         1 MZ9         0.0542
     75 H38        14.2542   37.3288   19.7122 H         1 MZ9         0.0577
     76 H39        14.6523   37.5604   17.9760 H         1 MZ9         0.0577
     77 H40        15.9695   37.3528   19.1795 H         1 MZ9         0.0577
@<TRIPOS>BOND
     1    1    2 2  
     2    2    3 1  
     3    2    9 am 
     4    3    4 1  
     5    4    5 1  
     6    5    6 2  
     7    5    7 1  
     8    7    8 1  
     9    9   10 1  
    10   10   11 1  
    11   10   18 1  
    12   11   12 1  
    13   12   13 ar 
    14   12   17 ar 
    15   13   14 ar 
    16   14   15 ar 
    17   15   16 ar 
    18   16   17 ar 
    19   18   19 1  
    20   18   20 1  
    21   20   21 1  
    22   21   22 1  
    23   21   27 am 
    24   22   23 1  
    25   23   24 1  
    26   23   25 1  
    27   25   26 1  
    28   27   28 2  
    29   27   29 2  
    30   27   30 1  
    31   30   31 ar 
    32   30   33 ar 
    33   31   32 ar 
    34   32   35 ar 
    35   33   34 ar 
    36   34   35 ar 
    37   35   36 1  
    38   36   37 1  
    39    3   38 1  
    40    3   39 1  
    41    4   40 1  
    42    4   41 1  
    43    7   42 1  
    44    7   43 1  
    45    8   44 1  
    46    8   45 1  
    47    8   46 1  
    48    9   47 1  
    49   10   48 1  
    50   11   49 1  
    51   11   50 1  
    52   13   51 1  
    53   14   52 1  
    54   15   53 1  
    55   16   54 1  
    56   17   55 1  
    57   18   56 1  
    58   19   57 1  
    59   20   58 1  
    60   20   59 1  
    61   22   60 1  
    62   22   61 1  
    63   23   62 1  
    64   24   63 1  
    65   24   64 1  
    66   24   65 1  
    67   25   66 1  
    68   25   67 1  
    69   26   68 1  
    70   26   69 1  
    71   26   70 1  
    72   31   71 1  
    73   32   72 1  
    74   33   73 1  
    75   34   74 1  
    76   37   75 1  
    77   37   76 1  
    78   37   77 1  
@<TRIPOS>SUBSTRUCTURE
     1 MZ9         1

