2qi7_ligand
  -I-interpret- 

 77 78  0  0  0  0  0  0  0  0999 V2000
   21.2560   29.8260   12.1740 O   0  0  0  0  0
   21.2510   28.7280   12.7060 C   0  0  0  0  0
   22.2000   27.6750   12.1930 C   0  0  0  0  0
   21.7890   27.2340   10.7920 C   0  0  0  0  0
   21.5100   25.7500   10.6490 C   0  0  0  0  0
   21.8010   24.9340   11.5240 O   0  0  0  0  0
   20.8560   25.3410    9.3460 C   0  0  0  0  0
   20.6960   23.8480    9.2000 C   0  0  0  0  0
   20.4650   28.3490   13.7160 N   0  0  0  0  0
   19.4480   29.1810   14.3330 C   0  0  0  0  0
   18.1330   28.4020   14.3040 C   0  0  0  0  0
   17.8240   28.0230   12.8680 C   0  0  0  0  0
   17.4760   29.0010   11.9400 C   0  0  0  0  0
   17.2020   28.6500   10.6180 C   0  0  0  0  0
   17.2770   27.3170   10.2210 C   0  0  0  0  0
   17.6280   26.3430   11.1410 C   0  0  0  0  0
   17.9030   26.6880   12.4640 C   0  0  0  0  0
   19.8990   29.5950   15.7320 C   0  0  0  0  0
   19.8750   28.4780   16.6370 O   0  0  0  0  0
   19.0660   30.7400   16.3150 C   0  0  0  0  0
   19.3420   31.9750   15.5460 N   0  0  0  0  0
   20.0580   32.9990   16.3450 C   0  0  0  0  0
   21.5480   32.6740   16.4230 C   0  0  0  0  0
   22.2140   32.6040   15.0450 C   0  0  0  0  0
   22.2520   33.6640   17.3550 C   0  0  0  0  0
   22.1780   35.1020   16.8960 C   0  0  0  0  0
   18.0080   32.5870   14.8490 S   0  0  0  0  0
   17.2180   31.5270   14.2910 O   0  0  0  0  0
   18.4760   33.4340   13.7860 O   0  0  0  0  0
   17.1370   33.4420   15.9060 C   0  0  0  0  0
   17.3750   34.8050   16.0790 C   0  0  0  0  0
   16.6490   35.5590   16.9960 C   0  0  0  0  0
   16.1490   32.8390   16.6790 C   0  0  0  0  0
   15.4140   33.5900   17.6040 C   0  0  0  0  0
   15.6530   34.9500   17.7710 C   0  0  0  0  0
   14.9060   35.6310   18.7060 O   0  0  0  0  0
   14.9480   37.0510   18.9050 C   0  0  0  0  0
   22.1726   26.8139   12.8607 H   0  0  0  0  0
   23.2073   28.0899   12.1556 H   0  0  0  0  0
   22.6237   27.4645   10.1299 H   0  0  0  0  0
   20.8611   27.7548   10.5556 H   0  0  0  0  0
   21.4973   25.6841    8.5341 H   0  0  0  0  0
   19.8595   25.7822    9.3254 H   0  0  0  0  0
   21.6765   23.3733    9.2386 H   0  0  0  0  0
   20.0753   23.4693   10.0121 H   0  0  0  0  0
   20.2210   23.6265    8.2443 H   0  0  0  0  0
   20.5881   27.4047   14.0814 H   0  0  0  0  0
   19.2921   30.1135   13.7906 H   0  0  0  0  0
   17.3286   29.0182   14.7057 H   0  0  0  0  0
   18.2218   27.5027   14.9135 H   0  0  0  0  0
   17.4174   30.0450   12.2477 H   0  0  0  0  0
   16.9291   29.4191    9.8955 H   0  0  0  0  0
   17.0600   27.0411    9.1890 H   0  0  0  0  0
   17.6897   25.3004   10.8291 H   0  0  0  0  0
   18.1795   25.9164   13.1825 H   0  0  0  0  0
   20.9221   29.9538   15.6196 H   0  0  0  0  0
   20.1623   28.7659   17.5066 H   0  0  0  0  0
   19.3299   30.8914   17.3617 H   0  0  0  0  0
   18.0060   30.4946   16.2494 H   0  0  0  0  0
   19.6458   33.0117   17.3540 H   0  0  0  0  0
   19.9328   33.9708   15.8676 H   0  0  0  0  0
   21.6479   31.6733   16.8433 H   0  0  0  0  0
   21.7341   31.8270   14.4500 H   0  0  0  0  0
   22.1084   33.5655   14.5426 H   0  0  0  0  0
   23.2717   32.3698   15.1655 H   0  0  0  0  0
   23.3061   33.3878   17.3824 H   0  0  0  0  0
   21.7525   33.6078   18.3222 H   0  0  0  0  0
   22.6465   35.1938   15.9161 H   0  0  0  0  0
   21.1339   35.4081   16.8311 H   0  0  0  0  0
   22.7005   35.7376   17.6109 H   0  0  0  0  0
   18.1472   35.2908   15.4825 H   0  0  0  0  0
   16.8551   36.6231   17.1114 H   0  0  0  0  0
   15.9461   31.7743   16.5633 H   0  0  0  0  0
   14.6438   33.1022   18.2015 H   0  0  0  0  0
   15.9607   37.3487   19.1769 H   0  0  0  0  0
   14.6549   37.5545   17.9838 H   0  0  0  0  0
   14.2602   37.3250   19.7050 H   0  0  0  0  0
  1  2  2  0  0  0
  2  3  1  0  0  0
  2  9  1  0  0  0
  3  4  1  0  0  0
  4  5  1  0  0  0
  5  6  2  0  0  0
  5  7  1  0  0  0
  7  8  1  0  0  0
  9 10  1  0  0  0
 10 11  1  0  0  0
 10 18  1  0  0  0
 11 12  1  0  0  0
 12 13  4  0  0  0
 12 17  4  0  0  0
 13 14  4  0  0  0
 14 15  4  0  0  0
 15 16  4  0  0  0
 16 17  4  0  0  0
 18 19  1  0  0  0
 18 20  1  0  0  0
 20 21  1  0  0  0
 21 22  1  0  0  0
 21 27  1  0  0  0
 22 23  1  0  0  0
 23 24  1  0  0  0
 23 25  1  0  0  0
 25 26  1  0  0  0
 27 28  2  0  0  0
 27 29  2  0  0  0
 27 30  1  0  0  0
 30 31  4  0  0  0
 30 33  4  0  0  0
 31 32  4  0  0  0
 32 35  4  0  0  0
 33 34  4  0  0  0
 34 35  4  0  0  0
 35 36  1  0  0  0
 36 37  1  0  0  0
  3 38  1  0  0  0
  3 39  1  0  0  0
  4 40  1  0  0  0
  4 41  1  0  0  0
  7 42  1  0  0  0
  7 43  1  0  0  0
  8 44  1  0  0  0
  8 45  1  0  0  0
  8 46  1  0  0  0
  9 47  1  0  0  0
 10 48  1  0  0  0
 11 49  1  0  0  0
 11 50  1  0  0  0
 13 51  1  0  0  0
 14 52  1  0  0  0
 15 53  1  0  0  0
 16 54  1  0  0  0
 17 55  1  0  0  0
 18 56  1  0  0  0
 19 57  1  0  0  0
 20 58  1  0  0  0
 20 59  1  0  0  0
 22 60  1  0  0  0
 22 61  1  0  0  0
 23 62  1  0  0  0
 24 63  1  0  0  0
 24 64  1  0  0  0
 24 65  1  0  0  0
 25 66  1  0  0  0
 25 67  1  0  0  0
 26 68  1  0  0  0
 26 69  1  0  0  0
 26 70  1  0  0  0
 31 71  1  0  0  0
 32 72  1  0  0  0
 33 73  1  0  0  0
 34 74  1  0  0  0
 37 75  1  0  0  0
 37 76  1  0  0  0
 37 77  1  0  0  0
M  END
$$$$
