### 
### Created by X-TOOL on Mon Aug  2 16:10:47 2021
### 

@<TRIPOS>MOLECULE
6gj8_ligand
   68    74     1     0     0
SMALL
GAST_HUCK


@<TRIPOS>ATOM
      1 C4         10.0670   12.7860  -19.6740 C.ar      1 F0K        -0.0341
      2 C5         10.2970   14.0660  -19.1820 C.ar      1 F0K         0.0864
      3 C6         11.4670   14.7480  -19.5070 C.ar      1 F0K        -0.0234
      4 C8         13.3280   12.4450  -21.6340 C.2       1 F0K         0.1952
      5 C10        12.4120   14.1370  -20.3340 C.ar      1 F0K        -0.0036
      6 C15        14.8110   14.8600  -19.6950 C.2       1 F0K        -0.0058
      7 C17        14.9310   14.1510  -18.4410 C.ar      1 F0K        -0.0274
      8 C20        15.7380   13.2040  -15.9400 C.ar      1 F0K        -0.0802
      9 C21        16.4710   14.2210  -16.5380 C.ar      1 F0K        -0.0481
     10 C24        16.2450   18.5220  -25.7750 C.ar      1 F0K        -0.0329
     11 C26        17.7960   16.9580  -24.7660 C.ar      1 F0K        -0.0704
     12 C28        16.7310   18.6160  -23.3880 C.ar      1 F0K        -0.0374
     13 O1          9.3180   14.6510  -18.4350 O.3       1 F0K        -0.3315
     14 O2         13.4660   11.3890  -22.2520 O.2       1 F0K        -0.3934
     15 C3         10.9950   12.1870  -20.5050 C.ar      1 F0K        -0.0567
     16 N7         14.2000   13.4670  -21.6070 N.am      1 F0K        -0.2707
     17 C9         12.1710   12.8610  -20.8170 C.ar      1 F0K         0.0429
     18 C11        13.7830   14.5980  -20.7820 C.3       1 F0K         0.0873
     19 C12        16.2750   16.6310  -20.8840 C.3       1 F0K         0.0210
     20 N13        16.6090   15.6510  -18.6100 N.pl3     1 F0K        -0.2765
     21 C14        15.8600   15.7320  -19.7610 C.2       1 F0K         0.0882
     22 C16        16.0680   14.6720  -17.7920 C.ar      1 F0K         0.0565
     23 C18        14.1980   13.1490  -17.8030 C.ar      1 F0K        -0.0796
     24 C19        14.5840   12.7090  -16.5430 C.ar      1 F0K        -0.0830
     25 N22        17.4750   16.0240  -21.5120 N.4       1 F0K         0.2515
     26 C23        16.0520   19.0890  -24.5030 C.ar      1 F0K         0.0606
     27 C25        17.1420   17.4510  -25.8890 C.ar      1 F0K        -0.0791
     28 C27        17.5920   17.5260  -23.5020 C.ar      1 F0K        -0.0124
     29 C29        18.2910   16.9860  -22.2770 C.3       1 F0K        -0.0035
     30 C30        15.3980   19.2420  -26.6820 C.2       1 F0K        -0.0676
     31 C31        14.7640   20.1950  -25.9620 C.2       1 F0K         0.0224
     32 N32        15.1300   20.1160  -24.6370 N.pl3     1 F0K        -0.2615
     33 C33        14.5680   20.9110  -23.5480 C.3       1 F0K         0.0779
     34 C34        13.6730   20.0480  -22.7100 C.2       1 F0K         0.0217
     35 C35        12.5000   19.4340  -23.0280 C.2       1 F0K         0.0340
     36 N36        12.1090   18.7390  -21.9220 N.pl3     1 F0K        -0.2638
     37 C37        13.0430   18.9140  -20.9740 C.2       1 F0K         0.0929
     38 N38        14.0050   19.7010  -21.4140 N.2       1 F0K        -0.3227
     39 C39        10.8770   17.9550  -21.8000 C.3       1 F0K         0.0445
     40 H1          9.1594   12.2575  -19.4057 H         1 F0K         0.0501
     41 H2         11.6428   15.7456  -19.1209 H         1 F0K         0.0491
     42 H3         16.0676   12.7909  -14.9935 H         1 F0K         0.0502
     43 H4         17.3332   14.6518  -16.0419 H         1 F0K         0.0531
     44 H5         18.4754   16.1198  -24.8701 H         1 F0K         0.0474
     45 H6         16.5910   19.0959  -22.4261 H         1 F0K         0.0472
     46 H7          8.6022   14.0376  -18.3168 H         1 F0K         0.2499
     47 H8         10.8077   11.1993  -20.9105 H         1 F0K         0.0625
     48 H9         15.0639   13.4543  -22.1106 H         1 F0K         0.1884
     49 H10        13.6869   15.5133  -21.3844 H         1 F0K         0.0786
     50 H11        16.5180   17.6312  -20.4959 H         1 F0K         0.0999
     51 H12        15.4634   16.7113  -21.6221 H         1 F0K         0.0999
     52 H13        17.4365   16.2242  -18.3919 H         1 F0K         0.2221
     53 H14        13.3311   12.7159  -18.2887 H         1 F0K         0.0510
     54 H15        13.9809   11.9729  -16.0238 H         1 F0K         0.0500
     55 H16        17.1725   15.2941  -22.1379 H         1 F0K         0.2042
     56 H17        18.0489   15.6267  -20.7848 H         1 F0K         0.2042
     57 H18        17.3269   17.0043  -26.8592 H         1 F0K         0.0528
     58 H19        19.2151   16.4823  -22.5968 H         1 F0K         0.0965
     59 H20        18.5426   17.8306  -21.6187 H         1 F0K         0.0965
     60 H21        15.2867   19.0561  -27.7492 H         1 F0K         0.0276
     61 H22        14.0637   20.9214  -26.3717 H         1 F0K         0.0908
     62 H23        13.9862   21.7458  -23.9657 H         1 F0K         0.0709
     63 H24        15.3831   21.3077  -22.9250 H         1 F0K         0.0709
     64 H25        11.9757   19.4876  -23.9810 H         1 F0K         0.0732
     65 H26        13.0107   18.4685  -19.9808 H         1 F0K         0.1201
     66 H27        10.3172   18.0023  -22.7457 H         1 F0K         0.0583
     67 H28        10.2597   18.3660  -20.9876 H         1 F0K         0.0583
     68 H29        11.1292   16.9082  -21.5752 H         1 F0K         0.0583
@<TRIPOS>BOND
     1    2    1 ar 
     2   15    1 ar 
     3    3    2 ar 
     4    2   13 1  
     5    5    3 ar 
     6    4   14 2  
     7   16    4 am 
     8    4   17 1  
     9    5   17 ar 
    10   18    5 1  
    11    6    7 1  
    12    6   18 1  
    13   21    6 2  
    14   22    7 ar 
    15    7   23 ar 
    16    9    8 ar 
    17    8   24 ar 
    18   22    9 ar 
    19   26   10 ar 
    20   27   10 ar 
    21   10   30 1  
    22   11   27 ar 
    23   28   11 ar 
    24   12   26 ar 
    25   28   12 ar 
    26   17   15 ar 
    27   18   16 1  
    28   19   21 1  
    29   25   19 1  
    30   21   20 1  
    31   20   22 1  
    32   23   24 ar 
    33   29   25 1  
    34   26   32 1  
    35   28   29 1  
    36   30   31 2  
    37   31   32 1  
    38   32   33 1  
    39   33   34 1  
    40   34   35 2  
    41   34   38 1  
    42   35   36 1  
    43   36   37 1  
    44   36   39 1  
    45   37   38 2  
    46    1   40 1  
    47    3   41 1  
    48    8   42 1  
    49    9   43 1  
    50   11   44 1  
    51   12   45 1  
    52   13   46 1  
    53   15   47 1  
    54   16   48 1  
    55   18   49 1  
    56   19   50 1  
    57   19   51 1  
    58   20   52 1  
    59   23   53 1  
    60   24   54 1  
    61   25   55 1  
    62   25   56 1  
    63   27   57 1  
    64   29   58 1  
    65   29   59 1  
    66   30   60 1  
    67   31   61 1  
    68   33   62 1  
    69   33   63 1  
    70   35   64 1  
    71   37   65 1  
    72   39   66 1  
    73   39   67 1  
    74   39   68 1  
@<TRIPOS>SUBSTRUCTURE
     1 F0K         1

