6gj8_ligand
  -I-interpret- 

 67 73  0  0  0  0  0  0  0  0999 V2000
   10.0670   12.7860  -19.6740 C   0  0  0  0  0
   10.2970   14.0660  -19.1820 C   0  0  0  0  0
   11.4670   14.7480  -19.5070 C   0  0  0  0  0
   13.3280   12.4450  -21.6340 C   0  0  0  0  0
   12.4120   14.1370  -20.3340 C   0  0  0  0  0
   14.8110   14.8600  -19.6950 C   0  0  0  0  0
   14.9310   14.1510  -18.4410 C   0  0  0  0  0
   15.7380   13.2040  -15.9400 C   0  0  0  0  0
   16.4710   14.2210  -16.5380 C   0  0  0  0  0
   16.2450   18.5220  -25.7750 C   0  0  0  0  0
   17.7960   16.9580  -24.7660 C   0  0  0  0  0
   16.7310   18.6160  -23.3880 C   0  0  0  0  0
    9.3180   14.6510  -18.4350 O   0  0  0  0  0
   13.4660   11.3890  -22.2520 O   0  0  0  0  0
   10.9950   12.1870  -20.5050 C   0  0  0  0  0
   14.2000   13.4670  -21.6070 N   0  0  0  0  0
   12.1710   12.8610  -20.8170 C   0  0  0  0  0
   13.7830   14.5980  -20.7820 C   0  0  0  0  0
   16.2750   16.6310  -20.8840 C   0  0  0  0  0
   16.6090   15.6510  -18.6100 N   0  0  0  0  0
   15.8600   15.7320  -19.7610 C   0  0  0  0  0
   16.0680   14.6720  -17.7920 C   0  0  0  0  0
   14.1980   13.1490  -17.8030 C   0  0  0  0  0
   14.5840   12.7090  -16.5430 C   0  0  0  0  0
   17.4750   16.0240  -21.5120 N   0  3  0  0  0
   16.0520   19.0890  -24.5030 C   0  0  0  0  0
   17.1420   17.4510  -25.8890 C   0  0  0  0  0
   17.5920   17.5260  -23.5020 C   0  0  0  0  0
   18.2910   16.9860  -22.2770 C   0  0  0  0  0
   15.3980   19.2420  -26.6820 C   0  0  0  0  0
   14.7640   20.1950  -25.9620 C   0  0  0  0  0
   15.1300   20.1160  -24.6370 N   0  0  0  0  0
   14.5680   20.9110  -23.5480 C   0  0  0  0  0
   13.6730   20.0480  -22.7100 C   0  0  0  0  0
   12.5000   19.4340  -23.0280 C   0  0  0  0  0
   12.1090   18.7390  -21.9220 N   0  0  0  0  0
   13.0430   18.9140  -20.9740 C   0  0  0  0  0
   14.0050   19.7010  -21.4140 N   0  0  0  0  0
   10.8770   17.9550  -21.8000 C   0  0  0  0  0
    9.1543   12.2546  -19.4042 H   0  0  0  0  0
   11.6438   15.7511  -19.1188 H   0  0  0  0  0
   16.0694   12.7886  -14.9883 H   0  0  0  0  0
   17.3380   14.6541  -16.0392 H   0  0  0  0  0
   18.4792   16.1151  -24.8707 H   0  0  0  0  0
   16.5902   19.0985  -22.4208 H   0  0  0  0  0
    9.6051   15.5253  -18.1615 H   0  0  0  0  0
   10.8066   11.1939  -20.9128 H   0  0  0  0  0
   15.0811   13.4541  -22.1206 H   0  0  0  0  0
   13.7217   15.5741  -21.2632 H   0  0  0  0  0
   16.5006   17.6305  -20.5121 H   0  0  0  0  0
   15.4703   16.7318  -21.6123 H   0  0  0  0  0
   13.3263   12.7135  -18.2914 H   0  0  0  0  0
   13.9776   11.9688  -16.0209 H   0  0  0  0  0
   17.1509   15.3104  -22.1648 H   0  0  0  0  0
   18.0596   15.6553  -20.7619 H   0  0  0  0  0
   17.3279   17.0019  -26.8646 H   0  0  0  0  0
   19.1858   16.4626  -22.6137 H   0  0  0  0  0
   18.5035   17.8304  -21.6214 H   0  0  0  0  0
   15.2866   19.0559  -27.7502 H   0  0  0  0  0
   14.0631   20.9221  -26.3721 H   0  0  0  0  0
   13.9916   21.7384  -23.9619 H   0  0  0  0  0
   15.3757   21.3043  -22.9307 H   0  0  0  0  0
   11.9753   19.4877  -23.9819 H   0  0  0  0  0
   13.0107   18.4681  -19.9799 H   0  0  0  0  0
   10.0166   18.6069  -21.9507 H   0  0  0  0  0
   10.8734   17.1667  -22.5528 H   0  0  0  0  0
   10.8278   17.5102  -20.8061 H   0  0  0  0  0
  2  1  4  0  0  0
 15  1  4  0  0  0
  3  2  4  0  0  0
  2 13  1  0  0  0
  5  3  4  0  0  0
  4 14  2  0  0  0
 16  4  1  0  0  0
  4 17  1  0  0  0
  5 17  4  0  0  0
 18  5  1  0  0  0
  6  7  4  0  0  0
  6 18  1  0  0  0
 21  6  4  0  0  0
 22  7  4  0  0  0
  7 23  4  0  0  0
  9  8  4  0  0  0
  8 24  4  0  0  0
 22  9  4  0  0  0
 26 10  4  0  0  0
 27 10  4  0  0  0
 10 30  4  0  0  0
 11 27  4  0  0  0
 28 11  4  0  0  0
 12 26  4  0  0  0
 28 12  4  0  0  0
 17 15  4  0  0  0
 18 16  1  0  0  0
 19 21  1  0  0  0
 25 19  1  0  0  0
 21 20  4  0  0  0
 20 22  4  0  0  0
 23 24  4  0  0  0
 29 25  1  0  0  0
 26 32  4  0  0  0
 28 29  1  0  0  0
 30 31  4  0  0  0
 31 32  4  0  0  0
 32 33  1  0  0  0
 33 34  1  0  0  0
 34 35  4  0  0  0
 34 38  4  0  0  0
 35 36  4  0  0  0
 36 37  4  0  0  0
 36 39  1  0  0  0
 37 38  4  0  0  0
  1 40  1  0  0  0
  3 41  1  0  0  0
  8 42  1  0  0  0
  9 43  1  0  0  0
 11 44  1  0  0  0
 12 45  1  0  0  0
 13 46  1  0  0  0
 15 47  1  0  0  0
 16 48  1  0  0  0
 18 49  1  0  0  0
 19 50  1  0  0  0
 19 51  1  0  0  0
 23 52  1  0  0  0
 24 53  1  0  0  0
 25 54  1  0  0  0
 25 55  1  0  0  0
 27 56  1  0  0  0
 29 57  1  0  0  0
 29 58  1  0  0  0
 30 59  1  0  0  0
 31 60  1  0  0  0
 33 61  1  0  0  0
 33 62  1  0  0  0
 35 63  1  0  0  0
 37 64  1  0  0  0
 39 65  1  0  0  0
 39 66  1  0  0  0
 39 67  1  0  0  0
M  END
$$$$
