### 
### Created by X-TOOL on Mon Aug  2 16:16:42 2021
### 

@<TRIPOS>MOLECULE
6r1b_ligand
   36    35     1     0     0
SMALL
GAST_HUCK


@<TRIPOS>ATOM
      1 C1        -10.5330   34.5970  -27.8270 C.3       1 CH5         0.1117
      2 C2         -9.6780   33.3970  -27.4820 C.3       1 CH5         0.1065
      3 C3         -8.7420   33.6590  -26.3230 C.3       1 CH5         0.0727
      4 C4        -10.2980   37.9760  -26.4080 C.3       1 CH5         0.1234
      5 C5         -9.9540   39.4210  -26.7020 C.3       1 CH5        -0.0017
      6 C6        -11.2060   40.3280  -24.7450 C.3       1 CH5        -0.0417
      7 C7        -12.2490   40.3530  -26.9520 C.3       1 CH5        -0.0417
      8 C8        -10.3570   41.8210  -26.4750 C.3       1 CH5        -0.0417
      9 N         -10.9470   40.4710  -26.2140 N.4       1 CH5         0.2388
     10 O2        -10.5150   32.2680  -27.1910 O.3       1 CH5        -0.3869
     11 O3         -7.8630   32.5510  -26.1410 O.3       1 CH5        -0.3924
     12 O1P       -13.2930   36.0250  -27.8920 O.co2     1 CH5        -0.6177
     13 O2P       -12.9590   36.5180  -25.3790 O.co2     1 CH5        -0.6177
     14 O3P       -11.2620   35.0820  -26.6750 O.3       1 CH5        -0.2514
     15 O4P       -11.4680   37.6010  -27.1700 O.3       1 CH5        -0.2488
     16 P         -12.3440   36.2680  -26.7820 P.3       1 CH5         0.2554
     17 H1        -11.2515   34.3102  -28.6089 H         1 CH5         0.0647
     18 H2         -9.8837   35.4015  -28.2028 H         1 CH5         0.0647
     19 H3         -9.0643   33.1562  -28.3625 H         1 CH5         0.0643
     20 H4         -9.3314   33.8097  -25.4066 H         1 CH5         0.0584
     21 H5         -8.1499   34.5624  -26.5309 H         1 CH5         0.0584
     22 H6        -10.5052   37.8583  -25.3341 H         1 CH5         0.0674
     23 H7         -9.4526   37.3317  -26.6911 H         1 CH5         0.0674
     24 H8         -9.8645   39.5277  -27.7931 H         1 CH5         0.0841
     25 H9         -8.9831   39.6355  -26.2317 H         1 CH5         0.0841
     26 H10       -11.9239   41.0966  -24.4228 H         1 CH5         0.0778
     27 H11       -10.2630   40.4525  -24.1926 H         1 CH5         0.0778
     28 H12       -11.6213   39.3300  -24.5413 H         1 CH5         0.0778
     29 H13       -12.0689   40.4568  -28.0322 H         1 CH5         0.0778
     30 H14       -12.9338   41.1459  -26.6167 H         1 CH5         0.0778
     31 H15       -12.6983   39.3699  -26.7480 H         1 CH5         0.0778
     32 H16        -9.4022   41.9141  -25.9368 H         1 CH5         0.0778
     33 H17       -11.0521   42.5987  -26.1257 H         1 CH5         0.0778
     34 H18       -10.1829   41.9427  -27.5543 H         1 CH5         0.0778
     35 H19        -9.9723   31.5016  -27.0472 H         1 CH5         0.2100
     36 H20        -8.3728   31.7702  -25.9597 H         1 CH5         0.2095
@<TRIPOS>BOND
     1    1    2 1  
     2   14    1 1  
     3    2    3 1  
     4    2   10 1  
     5    3   11 1  
     6    4    5 1  
     7   15    4 1  
     8    5    9 1  
     9    9    6 1  
    10    9    7 1  
    11    9    8 1  
    12   16   12 ar 
    13   16   13 ar 
    14   16   14 1  
    15   15   16 1  
    16    1   17 1  
    17    1   18 1  
    18    2   19 1  
    19    3   20 1  
    20    3   21 1  
    21    4   22 1  
    22    4   23 1  
    23    5   24 1  
    24    5   25 1  
    25    6   26 1  
    26    6   27 1  
    27    6   28 1  
    28    7   29 1  
    29    7   30 1  
    30    7   31 1  
    31    8   32 1  
    32    8   33 1  
    33    8   34 1  
    34   10   35 1  
    35   11   36 1  
@<TRIPOS>SUBSTRUCTURE
     1 CH5         1

