6r1b_ligand
  -I-interpret- 

 37 36  0  0  0  0  0  0  0  0999 V2000
  -10.5330   34.5970  -27.8270 C   0  0  0  0  0
   -9.6780   33.3970  -27.4820 C   0  0  0  0  0
   -8.7420   33.6590  -26.3230 C   0  0  0  0  0
  -10.2980   37.9760  -26.4080 C   0  0  0  0  0
   -9.9540   39.4210  -26.7020 C   0  0  0  0  0
  -11.2060   40.3280  -24.7450 C   0  0  0  0  0
  -12.2490   40.3530  -26.9520 C   0  0  0  0  0
  -10.3570   41.8210  -26.4750 C   0  0  0  0  0
  -10.9470   40.4710  -26.2140 N   0  3  0  0  0
  -10.5150   32.2680  -27.1910 O   0  0  0  0  0
   -7.8630   32.5510  -26.1410 O   0  0  0  0  0
  -13.2930   36.0250  -27.8920 O   0  0  0  0  0
  -12.9590   36.5180  -25.3790 O   0  0  0  0  0
  -11.2620   35.0820  -26.6750 O   0  0  0  0  0
  -11.4680   37.6010  -27.1700 O   0  0  0  0  0
  -12.3440   36.2680  -26.7820 P   0  0  0  0  0
  -11.2530   34.2986  -28.5890 H   0  0  0  0  0
   -9.8797   35.3944  -28.1813 H   0  0  0  0  0
   -9.0563   33.1862  -28.3522 H   0  0  0  0  0
   -9.3286   33.8024  -25.4156 H   0  0  0  0  0
   -8.1528   34.5514  -26.5344 H   0  0  0  0  0
  -10.5014   37.8578  -25.3437 H   0  0  0  0  0
   -9.4601   37.3367  -26.6862 H   0  0  0  0  0
   -9.9303   39.5103  -27.7881 H   0  0  0  0  0
   -9.0205   39.6216  -26.1763 H   0  0  0  0  0
  -11.8871   41.1142  -24.4192 H   0  0  0  0  0
  -11.6537   39.3536  -24.5495 H   0  0  0  0  0
  -10.2649   40.4125  -24.2015 H   0  0  0  0  0
  -12.9337   41.1266  -26.6043 H   0  0  0  0  0
  -12.0720   40.4762  -28.0205 H   0  0  0  0  0
  -12.6833   39.3709  -26.7652 H   0  0  0  0  0
  -10.1850   41.9403  -27.5447 H   0  0  0  0  0
  -11.0467   42.5907  -26.1285 H   0  0  0  0  0
   -9.4110   41.9120  -25.9412 H   0  0  0  0  0
  -11.1051   32.1093  -27.9314 H   0  0  0  0  0
   -7.2745   32.7286  -25.4036 H   0  0  0  0  0
  -12.2544   36.6623  -24.7431 H   0  0  0  0  0
  1  2  1  0  0  0
 14  1  1  0  0  0
  2  3  1  0  0  0
  2 10  1  0  0  0
  3 11  1  0  0  0
  4  5  1  0  0  0
 15  4  1  0  0  0
  5  9  1  0  0  0
  9  6  1  0  0  0
  9  7  1  0  0  0
  9  8  1  0  0  0
 16 12  2  0  0  0
 16 13  1  0  0  0
 16 14  1  0  0  0
 15 16  1  0  0  0
  1 17  1  0  0  0
  1 18  1  0  0  0
  2 19  1  0  0  0
  3 20  1  0  0  0
  3 21  1  0  0  0
  4 22  1  0  0  0
  4 23  1  0  0  0
  5 24  1  0  0  0
  5 25  1  0  0  0
  6 26  1  0  0  0
  6 27  1  0  0  0
  6 28  1  0  0  0
  7 29  1  0  0  0
  7 30  1  0  0  0
  7 31  1  0  0  0
  8 32  1  0  0  0
  8 33  1  0  0  0
  8 34  1  0  0  0
 10 35  1  0  0  0
 11 36  1  0  0  0
 13 37  1  0  0  0
M  END
$$$$
