4iue_ligand
  -I-interpret- 

 31 33  0  0  0  0  0  0  0  0999 V2000
    5.6550  -12.1620  -14.0950 C   0  0  0  0  0
    4.1680  -12.1670  -13.6220 C   0  0  0  0  0
    3.1370  -12.3490  -14.5700 C   0  0  0  0  0
    1.8010  -12.3480  -14.1670 C   0  0  0  0  0
    0.8650  -12.5260  -14.9580 O   0  0  0  0  0
    1.4970  -12.1660  -12.8020 N   0  0  0  0  0
    2.5030  -11.9900  -11.8470 C   0  0  0  0  0
    2.1490  -11.8050  -10.5090 C   0  0  0  0  0
    3.8510  -11.9830  -12.2460 C   0  0  0  0  0
    4.8400  -11.7740  -11.2390 C   0  0  0  0  0
    4.4700  -11.6100   -9.8830 C   0  0  0  0  0
    3.1170  -11.6130   -9.5170 C   0  0  0  0  0
    2.6980  -11.4820   -8.1820 C   0  0  0  0  0
    3.1420  -10.3990   -7.4080 C   0  0  0  0  0
    2.7400  -10.2350   -6.0880 C   0  0  0  0  0
    1.8950  -11.1610   -5.4970 C   0  0  0  0  0
    1.4450  -12.2700   -6.2350 C   0  0  0  0  0
    1.8160  -12.4460   -7.5810 C   0  0  0  0  0
    1.3250  -13.5600   -8.2320 F   0  0  0  0  0
    5.8883  -13.1168  -14.5662 H   0  0  0  0  0
    5.8039  -11.3552  -14.8127 H   0  0  0  0  0
    6.3079  -12.0105  -13.2354 H   0  0  0  0  0
    3.3861  -12.4909  -15.6216 H   0  0  0  0  0
    0.5213  -12.1627  -12.5047 H   0  0  0  0  0
    1.0950  -11.8103  -10.2311 H   0  0  0  0  0
    5.8933  -11.7403  -11.5176 H   0  0  0  0  0
    5.2390  -11.4810   -9.1214 H   0  0  0  0  0
    3.8183   -9.6690   -7.8528 H   0  0  0  0  0
    3.0902   -9.3758   -5.5159 H   0  0  0  0  0
    1.5798  -11.0298   -4.4618 H   0  0  0  0  0
    0.7982  -13.0055   -5.7567 H   0  0  0  0  0
  1  2  1  0  0  0
  2  3  2  0  0  0
  2  9  1  0  0  0
  3  4  1  0  0  0
  4  5  2  0  0  0
  4  6  1  0  0  0
  6  7  1  0  0  0
  7  8  4  0  0  0
  7  9  4  0  0  0
  8 12  4  0  0  0
  9 10  4  0  0  0
 10 11  4  0  0  0
 11 12  4  0  0  0
 12 13  1  0  0  0
 13 14  4  0  0  0
 13 18  4  0  0  0
 14 15  4  0  0  0
 15 16  4  0  0  0
 16 17  4  0  0  0
 17 18  4  0  0  0
 18 19  1  0  0  0
  1 20  1  0  0  0
  1 21  1  0  0  0
  1 22  1  0  0  0
  3 23  1  0  0  0
  6 24  1  0  0  0
  8 25  1  0  0  0
 10 26  1  0  0  0
 11 27  1  0  0  0
 14 28  1  0  0  0
 15 29  1  0  0  0
 16 30  1  0  0  0
 17 31  1  0  0  0
M  END
$$$$
