### 
### Created by X-TOOL on Mon Sep 10 21:13:14 2018
### 

@<TRIPOS>MOLECULE
4iue_ligand
   31    33     1     0     0
SMALL
GAST_HUCK


@<TRIPOS>ATOM
      1 CAA         5.6550  -12.1620  -14.0950 C.3       1 AJ4        -0.0259
      2 CAM         4.1680  -12.1670  -13.6220 C.2       1 AJ4        -0.0313
      3 CAJ         3.1370  -12.3490  -14.5700 C.2       1 AJ4        -0.0018
      4 CAQ         1.8010  -12.3480  -14.1670 C.2       1 AJ4         0.1915
      5 OAB         0.8650  -12.5260  -14.9580 O.2       1 AJ4        -0.4131
      6 NAL         1.4970  -12.1660  -12.8020 N.am      1 AJ4        -0.2326
      7 CAR         2.5030  -11.9900  -11.8470 C.ar      1 AJ4         0.0880
      8 CAK         2.1490  -11.8050  -10.5090 C.ar      1 AJ4        -0.0265
      9 CAS         3.8510  -11.9830  -12.2460 C.ar      1 AJ4         0.0182
     10 CAI         4.8400  -11.7740  -11.2390 C.ar      1 AJ4        -0.0586
     11 CAH         4.4700  -11.6100   -9.8830 C.ar      1 AJ4        -0.0638
     12 CAO         3.1170  -11.6130   -9.5170 C.ar      1 AJ4        -0.0261
     13 CAP         2.6980  -11.4820   -8.1820 C.ar      1 AJ4         0.0155
     14 CAG         3.1420  -10.3990   -7.4080 C.ar      1 AJ4        -0.0547
     15 CAE         2.7400  -10.2350   -6.0880 C.ar      1 AJ4        -0.0644
     16 CAD         1.8950  -11.1610   -5.4970 C.ar      1 AJ4        -0.0628
     17 CAF         1.4450  -12.2700   -6.2350 C.ar      1 AJ4        -0.0264
     18 CAN         1.8160  -12.4460   -7.5810 C.ar      1 AJ4         0.1422
     19 FAC         1.3250  -13.5600   -8.2320 F         1 AJ4        -0.1808
     20 H1          5.6941  -12.3180  -15.1832 H         1 AJ4         0.0426
     21 H2          6.2035  -12.9700  -13.5888 H         1 AJ4         0.0426
     22 H3          6.1156  -11.1945  -13.8465 H         1 AJ4         0.0426
     23 H4          3.3859  -12.4908  -15.6207 H         1 AJ4         0.0423
     24 H5          0.5404  -12.1627  -12.5105 H         1 AJ4         0.2356
     25 H6          1.1008  -11.8102  -10.2326 H         1 AJ4         0.0518
     26 H7          5.8875  -11.7404  -11.5160 H         1 AJ4         0.0618
     27 H8          5.2348  -11.4817   -9.1255 H         1 AJ4         0.0519
     28 H9          3.8146   -9.6730   -7.8503 H         1 AJ4         0.0619
     29 H10         3.0882   -9.3806   -5.5190 H         1 AJ4         0.0586
     30 H11         1.5815  -11.0305   -4.4675 H         1 AJ4         0.0613
     31 H12         0.8017  -13.0014   -5.7593 H         1 AJ4         0.0606
@<TRIPOS>BOND
     1    1    2 1  
     2    2    3 2  
     3    2    9 1  
     4    3    4 1  
     5    4    5 2  
     6    4    6 am 
     7    6    7 1  
     8    7    8 ar 
     9    7    9 ar 
    10    8   12 ar 
    11    9   10 ar 
    12   10   11 ar 
    13   11   12 ar 
    14   12   13 1  
    15   13   14 ar 
    16   13   18 ar 
    17   14   15 ar 
    18   15   16 ar 
    19   16   17 ar 
    20   17   18 ar 
    21   18   19 1  
    22    1   20 1  
    23    1   21 1  
    24    1   22 1  
    25    3   23 1  
    26    6   24 1  
    27    8   25 1  
    28   10   26 1  
    29   11   27 1  
    30   14   28 1  
    31   15   29 1  
    32   16   30 1  
    33   17   31 1  
@<TRIPOS>SUBSTRUCTURE
     1 AJ4         1

