4qd6_ligand
  -I-interpret- 

 61 65  0  0  0  0  0  0  0  0999 V2000
    5.2210   24.4410   20.6930 C   0  0  0  0  0
    5.7920   24.8630   19.5050 C   0  0  0  0  0
    4.9980   24.9710   18.3590 C   0  0  0  0  0
    3.6210   24.6530   18.4520 C   0  0  0  0  0
    3.0900   24.2440   19.6130 N   0  0  0  0  0
    3.8640   24.1250   20.7080 C   0  0  0  0  0
    7.3570   25.2190   19.5220 S   0  0  0  0  0
    7.7540   26.4190   20.5400 C   0  0  0  0  0
    7.2480   27.7160   20.3940 C   0  0  0  0  0
    7.6260   28.7090   21.2940 C   0  0  0  0  0
    8.5180   28.4350   22.3370 C   0  0  0  0  0
    9.0410   27.1510   22.4940 C   0  0  0  0  0
    8.6500   26.1590   21.5920 C   0  0  0  0  0
    7.7400   25.6060   18.1940 O   0  0  0  0  0
    8.1600   24.1100   19.9950 O   0  0  0  0  0
    2.7380   24.7070   17.4260 N   0  0  0  0  0
    3.2690   23.7330   21.8430 N   0  0  0  0  0
    1.9340   23.5300   21.9100 C   0  0  0  0  0
    0.8450   23.5100   21.0670 C   0  0  0  0  0
   -0.1840   23.1560   21.9330 C   0  0  0  0  0
    0.1970   22.9570   23.1710 N   0  0  0  0  0
    1.5580   23.2130   23.1320 N   0  0  0  0  0
    1.4440   24.0340   17.4920 C   0  0  0  0  0
    1.5970   22.6240   16.9370 C   0  0  0  0  0
    0.2590   21.8880   16.9080 C   0  0  0  0  0
   -0.8530   22.6260   16.1400 C   0  0  0  0  0
   -0.9210   24.1240   16.4580 C   0  0  0  0  0
    0.4440   24.7830   16.6190 C   0  0  0  0  0
   -2.1120   22.0390   16.5000 O   0  0  0  0  0
   -1.6180   22.9260   21.8270 C   0  0  0  0  0
   -2.2410   22.3510   22.9200 C   0  0  0  0  0
   -3.6000   22.1060   22.8000 C   0  0  0  0  0
   -4.3290   22.4670   21.6430 C   0  0  0  0  0
   -3.6720   23.0700   20.5800 C   0  0  0  0  0
   -2.2830   23.3000   20.6620 C   0  0  0  0  0
    5.8211   24.3575   21.5991 H   0  0  0  0  0
    5.4307   25.2938   17.4121 H   0  0  0  0  0
    6.5614   27.9475   19.5797 H   0  0  0  0  0
    7.2210   29.7150   21.1845 H   0  0  0  0  0
    8.8050   29.2270   23.0287 H   0  0  0  0  0
    9.7382   26.9274   23.3015 H   0  0  0  0  0
    9.0518   25.1523   21.7071 H   0  0  0  0  0
    2.9834   25.2311   16.5861 H   0  0  0  0  0
    3.8373   23.5841   22.6768 H   0  0  0  0  0
    0.8010   23.7178   19.9979 H   0  0  0  0  0
    1.0964   24.0061   18.5247 H   0  0  0  0  0
    2.2820   22.0714   17.5800 H   0  0  0  0  0
    1.9763   22.6927   15.9174 H   0  0  0  0  0
   -0.0754   21.7893   17.9407 H   0  0  0  0  0
    0.4257   20.9391   16.3982 H   0  0  0  0  0
   -0.6314   22.5273   15.0773 H   0  0  0  0  0
   -1.4467   24.2307   17.4068 H   0  0  0  0  0
   -1.4197   24.6112   15.6201 H   0  0  0  0  0
    0.8818   24.8313   15.6219 H   0  0  0  0  0
    0.2672   25.7416   17.1069 H   0  0  0  0  0
   -2.8189   22.4872   16.0299 H   0  0  0  0  0
   -1.6918   22.1034   23.8284 H   0  0  0  0  0
   -4.1234   21.6198   23.6233 H   0  0  0  0  0
   -5.4001   22.2728   21.5868 H   0  0  0  0  0
   -4.2254   23.3638   19.6881 H   0  0  0  0  0
   -1.7432   23.7592   19.8338 H   0  0  0  0  0
  1  2  4  0  0  0
  1  6  4  0  0  0
  2  3  4  0  0  0
  2  7  1  0  0  0
  3  4  4  0  0  0
  4  5  4  0  0  0
  4 16  1  0  0  0
  5  6  4  0  0  0
  6 17  1  0  0  0
  7  8  1  0  0  0
  7 14  2  0  0  0
  7 15  2  0  0  0
  8  9  4  0  0  0
  8 13  4  0  0  0
  9 10  4  0  0  0
 10 11  4  0  0  0
 11 12  4  0  0  0
 12 13  4  0  0  0
 16 23  1  0  0  0
 17 18  1  0  0  0
 18 19  4  0  0  0
 18 22  4  0  0  0
 19 20  4  0  0  0
 20 21  4  0  0  0
 20 30  1  0  0  0
 21 22  4  0  0  0
 23 24  1  0  0  0
 23 28  1  0  0  0
 24 25  1  0  0  0
 25 26  1  0  0  0
 26 27  1  0  0  0
 26 29  1  0  0  0
 27 28  1  0  0  0
 30 31  4  0  0  0
 30 35  4  0  0  0
 31 32  4  0  0  0
 32 33  4  0  0  0
 33 34  4  0  0  0
 34 35  4  0  0  0
  1 36  1  0  0  0
  3 37  1  0  0  0
  9 38  1  0  0  0
 10 39  1  0  0  0
 11 40  1  0  0  0
 12 41  1  0  0  0
 13 42  1  0  0  0
 16 43  1  0  0  0
 17 44  1  0  0  0
 19 45  1  0  0  0
 23 46  1  0  0  0
 24 47  1  0  0  0
 24 48  1  0  0  0
 25 49  1  0  0  0
 25 50  1  0  0  0
 26 51  1  0  0  0
 27 52  1  0  0  0
 27 53  1  0  0  0
 28 54  1  0  0  0
 28 55  1  0  0  0
 29 56  1  0  0  0
 31 57  1  0  0  0
 32 58  1  0  0  0
 33 59  1  0  0  0
 34 60  1  0  0  0
 35 61  1  0  0  0
M  END
$$$$
