### 
### Created by X-TOOL on Mon Sep 10 21:13:25 2018
### 

@<TRIPOS>MOLECULE
4qd6_ligand
   62    66     1     0     0
SMALL
GAST_HUCK


@<TRIPOS>ATOM
      1 C1          5.2210   24.4410   20.6930 C.ar      1 30T        -0.0023
      2 C2          5.7920   24.8630   19.5050 C.ar      1 30T         0.0899
      3 C3          4.9980   24.9710   18.3590 C.ar      1 30T        -0.0055
      4 C4          3.6210   24.6530   18.4520 C.ar      1 30T         0.0976
      5 N5          3.0900   24.2440   19.6130 N.ar      1 30T        -0.2700
      6 C6          3.8640   24.1250   20.7080 C.ar      1 30T         0.1144
      7 S7          7.3570   25.2190   19.5220 S.o2      1 30T         0.0255
      8 C8          7.7540   26.4190   20.5400 C.ar      1 30T         0.0946
      9 C9          7.2480   27.7160   20.3940 C.ar      1 30T        -0.0363
     10 C10         7.6260   28.7090   21.2940 C.ar      1 30T        -0.0599
     11 C11         8.5180   28.4350   22.3370 C.ar      1 30T        -0.0616
     12 C12         9.0410   27.1510   22.4940 C.ar      1 30T        -0.0599
     13 C13         8.6500   26.1590   21.5920 C.ar      1 30T        -0.0363
     14 O14         7.7400   25.6060   18.1940 O.2       1 30T        -0.1632
     15 O15         8.1600   24.1100   19.9950 O.2       1 30T        -0.1632
     16 N16         2.7380   24.7070   17.4260 N.pl3     1 30T        -0.3081
     17 N17         3.2690   23.7330   21.8430 N.pl3     1 30T        -0.2628
     18 C18         1.9340   23.5300   21.9100 C.2       1 30T         0.1116
     19 C19         0.8450   23.5100   21.0670 C.2       1 30T        -0.0142
     20 C20        -0.1840   23.1560   21.9330 C.2       1 30T         0.0822
     21 N21         0.1970   22.9570   23.1710 N.pl3     1 30T        -0.2286
     22 N22         1.5580   23.2130   23.1320 N.2       1 30T        -0.2119
     23 C23         1.4440   24.0340   17.4920 C.3       1 30T         0.0379
     24 C24         1.5970   22.6240   16.9370 C.3       1 30T        -0.0278
     25 C25         0.2590   21.8880   16.9080 C.3       1 30T        -0.0248
     26 C26        -0.8530   22.6260   16.1400 C.3       1 30T         0.0554
     27 C27        -0.9210   24.1240   16.4580 C.3       1 30T        -0.0248
     28 C28         0.4440   24.7830   16.6190 C.3       1 30T        -0.0278
     29 O29        -2.1120   22.0390   16.5000 O.3       1 30T        -0.3918
     30 C30        -1.6180   22.9260   21.8270 C.ar      1 30T         0.0079
     31 C31        -2.2410   22.3510   22.9200 C.ar      1 30T        -0.0518
     32 C32        -3.6000   22.1060   22.8000 C.ar      1 30T        -0.0614
     33 C33        -4.3290   22.4670   21.6430 C.ar      1 30T        -0.0620
     34 C34        -3.6720   23.0700   20.5800 C.ar      1 30T        -0.0614
     35 C35        -2.2830   23.3000   20.6620 C.ar      1 30T        -0.0518
     36 H1          5.8178   24.3579   21.5941 H         1 30T         0.0522
     37 H2          5.4283   25.2920   17.4173 H         1 30T         0.0516
     38 H3          6.5652   27.9462   19.5842 H         1 30T         0.0637
     39 H4          7.2232   29.7095   21.1851 H         1 30T         0.0618
     40 H5          8.8034   29.2226   23.0249 H         1 30T         0.0618
     41 H6          9.7344   26.9287   23.2970 H         1 30T         0.0618
     42 H7          9.0496   25.1578   21.7064 H         1 30T         0.0637
     43 H8          2.9858   25.2363   16.5778 H         1 30T         0.1803
     44 H9          3.8429   23.5827   22.6850 H         1 30T         0.2087
     45 H10         0.8011   23.7176   19.9989 H         1 30T         0.0348
     46 H11        -0.3774   22.6774   23.9789 H         1 30T         0.2464
     47 H12         1.0887   23.9985   18.5324 H         1 30T         0.0553
     48 H13         2.2997   22.0640   17.5715 H         1 30T         0.0288
     49 H14         1.9948   22.6836   15.9132 H         1 30T         0.0288
     50 H15        -0.0769   21.7425   17.9453 H         1 30T         0.0291
     51 H16         0.4147   20.9085   16.4322 H         1 30T         0.0291
     52 H17        -0.6790   22.5013   15.0611 H         1 30T         0.0593
     53 H18        -1.4813   24.2541   17.3956 H         1 30T         0.0291
     54 H19        -1.4547   24.6282   15.6389 H         1 30T         0.0291
     55 H20         0.8859   24.8925   15.6177 H         1 30T         0.0288
     56 H21         0.2882   25.7778   17.0619 H         1 30T         0.0288
     57 H22        -2.0918   21.1083   16.3108 H         1 30T         0.2098
     58 H23        -1.6948   22.1048   23.8234 H         1 30T         0.0623
     59 H24        -4.1205   21.6225   23.6187 H         1 30T         0.0617
     60 H25        -5.3942   22.2738   21.5871 H         1 30T         0.0615
     61 H26        -4.2223   23.3622   19.6930 H         1 30T         0.0617
     62 H27        -1.7462   23.7567   19.8384 H         1 30T         0.0623
@<TRIPOS>BOND
     1    1    2 ar 
     2    1    6 ar 
     3    2    3 ar 
     4    2    7 1  
     5    3    4 ar 
     6    4    5 ar 
     7    4   16 1  
     8    5    6 ar 
     9    6   17 1  
    10    7    8 1  
    11    7   14 2  
    12    7   15 2  
    13    8    9 ar 
    14    8   13 ar 
    15    9   10 ar 
    16   10   11 ar 
    17   11   12 ar 
    18   12   13 ar 
    19   16   23 1  
    20   17   18 1  
    21   18   19 1  
    22   18   22 2  
    23   19   20 2  
    24   20   21 1  
    25   20   30 1  
    26   21   22 1  
    27   23   24 1  
    28   23   28 1  
    29   24   25 1  
    30   25   26 1  
    31   26   27 1  
    32   26   29 1  
    33   27   28 1  
    34   30   31 ar 
    35   30   35 ar 
    36   31   32 ar 
    37   32   33 ar 
    38   33   34 ar 
    39   34   35 ar 
    40    1   36 1  
    41    3   37 1  
    42    9   38 1  
    43   10   39 1  
    44   11   40 1  
    45   12   41 1  
    46   13   42 1  
    47   16   43 1  
    48   17   44 1  
    49   19   45 1  
    50   21   46 1  
    51   23   47 1  
    52   24   48 1  
    53   24   49 1  
    54   25   50 1  
    55   25   51 1  
    56   26   52 1  
    57   27   53 1  
    58   27   54 1  
    59   28   55 1  
    60   28   56 1  
    61   29   57 1  
    62   31   58 1  
    63   32   59 1  
    64   33   60 1  
    65   34   61 1  
    66   35   62 1  
@<TRIPOS>SUBSTRUCTURE
     1 30T         1

