### 
### Created by X-TOOL on Mon Sep 10 21:12:55 2018
### 

@<TRIPOS>MOLECULE
2gh9_ligand
   66    68     1     0     0
SMALL
GAST_HUCK


@<TRIPOS>ATOM
      1 C1A        21.9180   19.4720   18.0840 C.3       1 MLR         0.1854
      2 C2A        21.2150   18.1540   17.7640 C.3       1 MLR         0.1339
      3 C3A        21.2260   17.2600   18.9880 C.3       1 MLR         0.1144
      4 C4A        22.6760   17.0360   19.4450 C.3       1 MLR         0.1184
      5 C5A        23.3740   18.3710   19.7510 C.3       1 MLR         0.1134
      6 C6A        24.8750   18.1690   20.0360 C.3       1 MLR         0.0730
      7 O1X        21.1070   20.2000   19.0030 O.3       1 MLR        -0.3649
      8 O2A        19.8710   18.3910   17.2900 O.3       1 MLR        -0.3841
      9 O3A        20.5720   16.0050   18.7380 O.3       1 MLR        -0.3864
     10 O4A        22.6620   16.3380   20.6780 O.3       1 MLR        -0.3401
     11 O5A        23.2210   19.2480   18.6370 O.3       1 MLR        -0.3407
     12 O6A        25.5480   19.4220   20.2650 O.3       1 MLR        -0.3924
     13 C1B        23.3230   15.0620   20.6720 C.3       1 MLR         0.1884
     14 C2B        22.3730   14.0280   21.2470 C.3       1 MLR         0.1341
     15 C3B        22.1350   14.3280   22.7440 C.3       1 MLR         0.1144
     16 C4B        23.4260   14.4860   23.5320 C.3       1 MLR         0.1184
     17 C5B        24.3540   15.4740   22.8300 C.3       1 MLR         0.1134
     18 C6B        25.7230   15.5230   23.5190 C.3       1 MLR         0.0730
     19 O2B        21.1210   14.0860   20.5580 O.3       1 MLR        -0.3841
     20 O3B        21.3320   13.3200   23.3190 O.3       1 MLR        -0.3864
     21 O4B        23.1320   14.9410   24.8680 O.3       1 MLR        -0.3401
     22 O5B        24.5310   15.1080   21.4420 O.3       1 MLR        -0.3405
     23 O6B        26.3730   16.7840   23.3370 O.3       1 MLR        -0.3924
     24 C1C        23.4320   13.9780   25.8730 C.3       1 MLR         0.1884
     25 C2C        22.2720   14.0270   26.8500 C.3       1 MLR         0.1341
     26 C3C        22.2410   15.3660   27.5690 C.3       1 MLR         0.1141
     27 C4C        23.6020   15.6270   28.2020 C.3       1 MLR         0.1119
     28 C5C        24.7480   15.5290   27.1840 C.3       1 MLR         0.1130
     29 C6C        26.1420   15.6580   27.8160 C.3       1 MLR         0.0730
     30 O2C        21.0270   13.8050   26.1610 O.3       1 MLR        -0.3841
     31 O3C        21.2270   15.3560   28.5690 O.3       1 MLR        -0.3864
     32 O4C        23.5620   16.9230   28.7980 O.3       1 MLR        -0.3865
     33 O5C        24.6880   14.2620   26.5230 O.3       1 MLR        -0.3405
     34 O6C        27.0840   16.0240   26.8010 O.3       1 MLR        -0.3924
     35 H1         22.0261   20.0544   17.1571 H         1 MLR         0.0935
     36 H2         21.7738   17.6479   16.9630 H         1 MLR         0.0671
     37 H3         20.6814   17.7727   19.7945 H         1 MLR         0.0648
     38 H4         23.2292   16.4754   18.6771 H         1 MLR         0.0651
     39 H5         22.9025   18.8232   20.6360 H         1 MLR         0.0647
     40 H6         25.3375   17.6688   19.1724 H         1 MLR         0.0584
     41 H7         24.9862   17.5364   20.9290 H         1 MLR         0.0584
     42 H8         21.5139   21.0385   19.1874 H         1 MLR         0.2126
     43 H9         19.3648   18.8127   17.9744 H         1 MLR         0.2101
     44 H10        20.5667   15.4877   19.5348 H         1 MLR         0.2100
     45 H11        25.1573   19.8579   21.0132 H         1 MLR         0.2095
     46 H12        23.5732   14.7897   19.6360 H         1 MLR         0.0938
     47 H13        22.8099   13.0247   21.1349 H         1 MLR         0.0671
     48 H14        21.5880   15.2801   22.8092 H         1 MLR         0.0648
     49 H15        23.9282   13.5092   23.5916 H         1 MLR         0.0651
     50 H16        23.8985   16.4741   22.8775 H         1 MLR         0.0647
     51 H17        26.3604   14.7316   23.0979 H         1 MLR         0.0584
     52 H18        25.5843   15.3479   24.5961 H         1 MLR         0.0584
     53 H19        20.5285   13.4404   20.9252 H         1 MLR         0.2101
     54 H20        21.1227   13.5561   24.2150 H         1 MLR         0.2100
     55 H21        27.2144   16.7718   23.7779 H         1 MLR         0.2095
     56 H22        23.4921   12.9773   25.4203 H         1 MLR         0.0938
     57 H23        22.4079   13.2303   27.5962 H         1 MLR         0.0671
     58 H24        22.0213   16.1625   26.8429 H         1 MLR         0.0648
     59 H25        23.7764   14.8763   28.9869 H         1 MLR         0.0647
     60 H26        24.6221   16.3338   26.4448 H         1 MLR         0.0647
     61 H27        26.4353   14.6958   28.2611 H         1 MLR         0.0584
     62 H28        26.1223   16.4325   28.5969 H         1 MLR         0.0584
     63 H29        20.3143   13.8053   26.7891 H         1 MLR         0.2101
     64 H30        21.4133   14.6711   29.2004 H         1 MLR         0.2100
     65 H31        23.4284   17.5771   28.1222 H         1 MLR         0.2100
     66 H32        27.0984   15.3541   26.1275 H         1 MLR         0.2095
@<TRIPOS>BOND
     1    1    2 1  
     2    1    7 1  
     3    1   11 1  
     4    2    3 1  
     5    2    8 1  
     6    3    4 1  
     7    3    9 1  
     8    4    5 1  
     9    4   10 1  
    10    5    6 1  
    11    5   11 1  
    12    6   12 1  
    13   10   13 1  
    14   13   14 1  
    15   13   22 1  
    16   14   15 1  
    17   14   19 1  
    18   15   16 1  
    19   15   20 1  
    20   16   17 1  
    21   16   21 1  
    22   17   18 1  
    23   17   22 1  
    24   18   23 1  
    25   21   24 1  
    26   24   25 1  
    27   24   33 1  
    28   25   26 1  
    29   25   30 1  
    30   26   27 1  
    31   26   31 1  
    32   27   28 1  
    33   27   32 1  
    34   28   29 1  
    35   28   33 1  
    36   29   34 1  
    37    1   35 1  
    38    2   36 1  
    39    3   37 1  
    40    4   38 1  
    41    5   39 1  
    42    6   40 1  
    43    6   41 1  
    44    7   42 1  
    45    8   43 1  
    46    9   44 1  
    47   12   45 1  
    48   13   46 1  
    49   14   47 1  
    50   15   48 1  
    51   16   49 1  
    52   17   50 1  
    53   18   51 1  
    54   18   52 1  
    55   19   53 1  
    56   20   54 1  
    57   23   55 1  
    58   24   56 1  
    59   25   57 1  
    60   26   58 1  
    61   27   59 1  
    62   28   60 1  
    63   29   61 1  
    64   29   62 1  
    65   30   63 1  
    66   31   64 1  
    67   32   65 1  
    68   34   66 1  
@<TRIPOS>SUBSTRUCTURE
     1 MLR         1

