2gh9_ligand
  -I-interpret- 

 66 68  0  0  0  0  0  0  0  0999 V2000
   21.9180   19.4720   18.0840 C   0  0  0  0  0
   21.2150   18.1540   17.7640 C   0  0  0  0  0
   21.2260   17.2600   18.9880 C   0  0  0  0  0
   22.6760   17.0360   19.4450 C   0  0  0  0  0
   23.3740   18.3710   19.7510 C   0  0  0  0  0
   24.8750   18.1690   20.0360 C   0  0  0  0  0
   21.1070   20.2000   19.0030 O   0  0  0  0  0
   19.8710   18.3910   17.2900 O   0  0  0  0  0
   20.5720   16.0050   18.7380 O   0  0  0  0  0
   22.6620   16.3380   20.6780 O   0  0  0  0  0
   23.2210   19.2480   18.6370 O   0  0  0  0  0
   25.5480   19.4220   20.2650 O   0  0  0  0  0
   23.3230   15.0620   20.6720 C   0  0  0  0  0
   22.3730   14.0280   21.2470 C   0  0  0  0  0
   22.1350   14.3280   22.7440 C   0  0  0  0  0
   23.4260   14.4860   23.5320 C   0  0  0  0  0
   24.3540   15.4740   22.8300 C   0  0  0  0  0
   25.7230   15.5230   23.5190 C   0  0  0  0  0
   21.1210   14.0860   20.5580 O   0  0  0  0  0
   21.3320   13.3200   23.3190 O   0  0  0  0  0
   23.1320   14.9410   24.8680 O   0  0  0  0  0
   24.5310   15.1080   21.4420 O   0  0  0  0  0
   26.3730   16.7840   23.3370 O   0  0  0  0  0
   23.4320   13.9780   25.8730 C   0  0  0  0  0
   22.2720   14.0270   26.8500 C   0  0  0  0  0
   22.2410   15.3660   27.5690 C   0  0  0  0  0
   23.6020   15.6270   28.2020 C   0  0  0  0  0
   24.7480   15.5290   27.1840 C   0  0  0  0  0
   26.1420   15.6580   27.8160 C   0  0  0  0  0
   21.0270   13.8050   26.1610 O   0  0  0  0  0
   21.2270   15.3560   28.5690 O   0  0  0  0  0
   23.5620   16.9230   28.7980 O   0  0  0  0  0
   24.6880   14.2620   26.5230 O   0  0  0  0  0
   27.0840   16.0240   26.8010 O   0  0  0  0  0
   22.0523   20.0415   17.1643 H   0  0  0  0  0
   21.7529   17.6462   16.9634 H   0  0  0  0  0
   20.6681   17.7577   19.7812 H   0  0  0  0  0
   23.1910   16.4981   18.6490 H   0  0  0  0  0
   22.9127   18.8009   20.6401 H   0  0  0  0  0
   25.3277   17.6900   19.1678 H   0  0  0  0  0
   24.9747   17.5571   20.9325 H   0  0  0  0  0
   20.2387   20.3420   18.6189 H   0  0  0  0  0
   19.9011   18.9589   16.5166 H   0  0  0  0  0
   19.6693   16.1668   18.4542 H   0  0  0  0  0
   26.4777   19.2575   20.4386 H   0  0  0  0  0
   23.5932   14.7970   19.6498 H   0  0  0  0  0
   22.8096   13.0362   21.1300 H   0  0  0  0  0
   21.6181   15.2863   22.7954 H   0  0  0  0  0
   23.9266   13.5195   23.5898 H   0  0  0  0  0
   23.8918   16.4595   22.8873 H   0  0  0  0  0
   26.3526   14.7497   23.0790 H   0  0  0  0  0
   25.5712   15.3702   24.5875 H   0  0  0  0  0
   20.5241   13.4301   20.9256 H   0  0  0  0  0
   21.1906   13.5162   24.2480 H   0  0  0  0  0
   27.2233   16.7717   23.7825 H   0  0  0  0  0
   23.5469   12.9819   25.4455 H   0  0  0  0  0
   22.4090   13.2371   27.5886 H   0  0  0  0  0
   22.0177   16.1591   26.8554 H   0  0  0  0  0
   23.8011   14.8622   28.9527 H   0  0  0  0  0
   24.6132   16.3616   26.4935 H   0  0  0  0  0
   26.4329   14.7062   28.2605 H   0  0  0  0  0
   26.1235   16.4228   28.5924 H   0  0  0  0  0
   20.3034   13.8388   26.7910 H   0  0  0  0  0
   21.2138   16.2043   29.0182 H   0  0  0  0  0
   24.4103   17.1129   29.2054 H   0  0  0  0  0
   27.9573   16.1059   27.1911 H   0  0  0  0  0
  1  2  1  0  0  0
  1  7  1  0  0  0
  1 11  1  0  0  0
  2  3  1  0  0  0
  2  8  1  0  0  0
  3  4  1  0  0  0
  3  9  1  0  0  0
  4  5  1  0  0  0
  4 10  1  0  0  0
  5  6  1  0  0  0
  5 11  1  0  0  0
  6 12  1  0  0  0
 10 13  1  0  0  0
 13 14  1  0  0  0
 13 22  1  0  0  0
 14 15  1  0  0  0
 14 19  1  0  0  0
 15 16  1  0  0  0
 15 20  1  0  0  0
 16 17  1  0  0  0
 16 21  1  0  0  0
 17 18  1  0  0  0
 17 22  1  0  0  0
 18 23  1  0  0  0
 21 24  1  0  0  0
 24 25  1  0  0  0
 24 33  1  0  0  0
 25 26  1  0  0  0
 25 30  1  0  0  0
 26 27  1  0  0  0
 26 31  1  0  0  0
 27 28  1  0  0  0
 27 32  1  0  0  0
 28 29  1  0  0  0
 28 33  1  0  0  0
 29 34  1  0  0  0
  1 35  1  0  0  0
  2 36  1  0  0  0
  3 37  1  0  0  0
  4 38  1  0  0  0
  5 39  1  0  0  0
  6 40  1  0  0  0
  6 41  1  0  0  0
  7 42  1  0  0  0
  8 43  1  0  0  0
  9 44  1  0  0  0
 12 45  1  0  0  0
 13 46  1  0  0  0
 14 47  1  0  0  0
 15 48  1  0  0  0
 16 49  1  0  0  0
 17 50  1  0  0  0
 18 51  1  0  0  0
 18 52  1  0  0  0
 19 53  1  0  0  0
 20 54  1  0  0  0
 23 55  1  0  0  0
 24 56  1  0  0  0
 25 57  1  0  0  0
 26 58  1  0  0  0
 27 59  1  0  0  0
 28 60  1  0  0  0
 29 61  1  0  0  0
 29 62  1  0  0  0
 30 63  1  0  0  0
 31 64  1  0  0  0
 32 65  1  0  0  0
 34 66  1  0  0  0
M  END
$$$$
