3c4h_ligand
  -I-interpret- 

 22 23  0  0  0  0  0  0  0  0999 V2000
   18.8570   -4.5790   12.9770 C   0  0  0  0  0
   17.9110   -5.5950   12.3240 C   0  0  0  0  0
   18.3250   -6.8280   12.0190 N   0  0  0  0  0
   17.5340   -7.7520   11.4420 C   0  0  0  0  0
   18.2410   -9.1000   11.2240 C   0  0  0  0  0
   17.2680  -10.2610   10.9910 C   0  0  0  0  0
   16.1370   -9.8170    9.6400 S   0  0  0  0  0
   15.2410   -8.4560   10.4850 C   0  0  0  0  0
   16.1980   -7.4470   11.1360 C   0  0  0  0  0
   15.7590   -6.1580   11.4460 C   0  0  0  0  0
   14.6070   -5.7980   11.2110 O   0  0  0  0  0
   16.6040   -5.2450   12.0510 N   0  0  0  0  0
   19.2066   -4.9715   13.9319 H   0  0  0  0  0
   19.7094   -4.4041   12.3206 H   0  0  0  0  0
   18.3247   -3.6420   13.1409 H   0  0  0  0  0
   18.8120   -9.3232   12.1253 H   0  0  0  0  0
   18.8632   -9.0066   10.3339 H   0  0  0  0  0
   16.6988  -10.4535   11.9004 H   0  0  0  0  0
   17.8237  -11.1606   10.7263 H   0  0  0  0  0
   14.6237   -8.8927   11.2700 H   0  0  0  0  0
   14.6469   -7.9273    9.7396 H   0  0  0  0  0
   16.2621   -4.3154   12.2948 H   0  0  0  0  0
  1  2  1  0  0  0
  2  3  2  0  0  0
  2 12  1  0  0  0
  3  4  1  0  0  0
  4  5  1  0  0  0
  4  9  2  0  0  0
  5  6  1  0  0  0
  6  7  1  0  0  0
  7  8  1  0  0  0
  8  9  1  0  0  0
  9 10  1  0  0  0
 10 11  2  0  0  0
 10 12  1  0  0  0
  1 13  1  0  0  0
  1 14  1  0  0  0
  1 15  1  0  0  0
  5 16  1  0  0  0
  5 17  1  0  0  0
  6 18  1  0  0  0
  6 19  1  0  0  0
  8 20  1  0  0  0
  8 21  1  0  0  0
 12 22  1  0  0  0
M  END
$$$$
