### 
### Created by X-TOOL on Mon Sep 10 21:12:57 2018
### 

@<TRIPOS>MOLECULE
3c4h_ligand
   22    23     1     0     0
SMALL
GAST_HUCK


@<TRIPOS>ATOM
      1 C1A        18.8570   -4.5790   12.9770 C.3       1 DRL         0.0265
      2 C1I        17.9110   -5.5950   12.3240 C.2       1 DRL         0.1415
      3 N1G        18.3250   -6.8280   12.0190 N.2       1 DRL        -0.3053
      4 C1J        17.5340   -7.7520   11.4420 C.2       1 DRL        -0.0089
      5 C1D        18.2410   -9.1000   11.2240 C.3       1 DRL        -0.0059
      6 C1C        17.2680  -10.2610   10.9910 C.3       1 DRL         0.0055
      7 S1H        16.1370   -9.8170    9.6400 S.3       1 DRL        -0.1520
      8 C1E        15.2410   -8.4560   10.4850 C.3       1 DRL         0.0170
      9 C1K        16.1980   -7.4470   11.1360 C.2       1 DRL         0.0245
     10 C1L        15.7590   -6.1580   11.4460 C.2       1 DRL         0.2020
     11 O1B        14.6070   -5.7980   11.2110 O.2       1 DRL        -0.4174
     12 N1F        16.6040   -5.2450   12.0510 N.am      1 DRL        -0.2012
     13 H1         19.8478   -5.0366   13.1150 H         1 DRL         0.0524
     14 H2         18.4530   -4.2775   13.9547 H         1 DRL         0.0524
     15 H3         18.9486   -3.6945   12.3295 H         1 DRL         0.0524
     16 H4         18.8470   -9.3250   12.1140 H         1 DRL         0.0450
     17 H5         18.8976   -9.0125   10.3458 H         1 DRL         0.0450
     18 H6         16.6914  -10.4497   11.9086 H         1 DRL         0.0402
     19 H7         17.8310  -11.1660   10.7191 H         1 DRL         0.0402
     20 H8         14.5966   -8.8871   11.2653 H         1 DRL         0.0457
     21 H9         14.6196   -7.9288    9.7462 H         1 DRL         0.0457
     22 H10        16.2688   -4.3337   12.2900 H         1 DRL         0.2550
@<TRIPOS>BOND
     1    1    2 1  
     2    2    3 2  
     3    2   12 1  
     4    3    4 1  
     5    4    5 1  
     6    4    9 2  
     7    5    6 1  
     8    6    7 1  
     9    7    8 1  
    10    8    9 1  
    11    9   10 1  
    12   10   11 2  
    13   10   12 am 
    14    1   13 1  
    15    1   14 1  
    16    1   15 1  
    17    5   16 1  
    18    5   17 1  
    19    6   18 1  
    20    6   19 1  
    21    8   20 1  
    22    8   21 1  
    23   12   22 1  
@<TRIPOS>SUBSTRUCTURE
     1 DRL         1

