### 
### Created by X-TOOL on Mon Sep 10 21:13:30 2018
### 

@<TRIPOS>MOLECULE
5n2t_ligand
   59    59     1     0     0
SMALL
GAST_HUCK


@<TRIPOS>ATOM
      1 C10        12.2140   40.1900   -6.9330 C.3       1 8KK         0.1132
      2 C11        13.0050   40.4590   -9.3260 C.2       1 8KK         0.3229
      3 C12        13.9480   40.3780  -11.5180 C.3       1 8KK         0.1113
      4 C13        15.4640   40.5680  -11.6310 C.ar      1 8KK        -0.0130
      5 C14        16.1140   41.3540  -10.6980 C.ar      1 8KK        -0.0578
      6 C15        17.4800   41.5460  -10.7600 C.ar      1 8KK        -0.0685
      7 C16        18.2180   40.9560  -11.7710 C.ar      1 8KK        -0.0687
      8 O01        12.5220   37.5790   -6.1360 O.co2     1 8KK        -0.6057
      9 P01        11.5460   38.7240   -6.0400 P.3       1 8KK         0.0870
     10 N01        11.3050   39.2700   -4.4650 N.am      1 8KK        -0.2736
     11 C01        10.1730   38.7730   -3.6940 C.3       1 8KK         0.1228
     12 C02        10.5650   38.8490   -2.2080 C.3       1 8KK        -0.0137
     13 C03         9.4820   38.3240   -1.2680 C.3       1 8KK        -0.0429
     14 C04         9.7960   38.6970    0.1780 C.3       1 8KK        -0.0625
     15 C05         9.3540   36.8090   -1.3920 C.3       1 8KK        -0.0625
     16 C06         8.9250   39.6240   -3.9040 C.2       1 8KK         0.1977
     17 N02         9.1450   41.0080   -4.1000 N.am      1 8KK        -0.2852
     18 C07         8.0410   41.9280   -4.2460 C.3       1 8KK         0.0357
     19 C08         8.3380   43.2230   -3.4840 C.3       1 8KK         0.0075
     20 C09         8.7360   43.0330   -2.0300 C.3       1 8KK        -0.0335
     21 N03         8.9460   44.3520   -1.4330 N.4       1 8KK         0.2186
     22 O02         7.8150   39.1810   -3.8690 O.2       1 8KK        -0.3950
     23 O03        10.1840   38.3510   -6.6120 O.co2     1 8KK        -0.6057
     24 N04        12.8990   39.7320   -8.1180 N.am      1 8KK        -0.2448
     25 O04        13.6380   39.7310  -10.3180 O.3       1 8KK        -0.2506
     26 C17        17.5820   40.1480  -12.6990 C.ar      1 8KK        -0.0685
     27 C18        16.2120   39.9550  -12.6340 C.ar      1 8KK        -0.0578
     28 O05        12.5820   41.5530   -9.4360 O.2       1 8KK        -0.3774
     29 H1         12.9178   40.7311   -6.2835 H         1 8KK         0.0743
     30 H2         11.3885   40.8592   -7.2171 H         1 8KK         0.0743
     31 H3         13.5926   39.7697  -12.3628 H         1 8KK         0.0776
     32 H4         13.4545   41.3608  -11.5406 H         1 8KK         0.0776
     33 H5         15.5433   41.8263   -9.9066 H         1 8KK         0.0557
     34 H6         17.9748   42.1596  -10.0159 H         1 8KK         0.0599
     35 H7         19.2868   41.1250  -11.8363 H         1 8KK         0.0559
     36 H8         11.9360   39.9323   -4.0609 H         1 8KK         0.1669
     37 H9          9.9588   37.7328   -3.9806 H         1 8KK         0.0753
     38 H10        10.7677   39.8999   -1.9540 H         1 8KK         0.0311
     39 H11        11.4769   38.2527   -2.0569 H         1 8KK         0.0311
     40 H12         8.5229   38.7830   -1.5497 H         1 8KK         0.0298
     41 H13         9.0047   38.3098    0.8366 H         1 8KK         0.0232
     42 H14         9.8476   39.7918    0.2714 H         1 8KK         0.0232
     43 H15        10.7620   38.2583    0.4684 H         1 8KK         0.0232
     44 H16         9.1277   36.5444   -2.4354 H         1 8KK         0.0232
     45 H17         8.5422   36.4550   -0.7397 H         1 8KK         0.0232
     46 H18        10.2998   36.3352   -1.0904 H         1 8KK         0.0232
     47 H19        10.0819   41.3555   -4.1381 H         1 8KK         0.1851
     48 H20         7.1271   41.4683   -3.8417 H         1 8KK         0.0522
     49 H21         7.8956   42.1572   -5.3120 H         1 8KK         0.0522
     50 H22         7.4350   43.8506   -3.5118 H         1 8KK         0.0336
     51 H23         9.1607   43.7412   -3.9985 H         1 8KK         0.0336
     52 H24         9.6651   42.4470   -1.9726 H         1 8KK         0.0814
     53 H25         7.9354   42.5047   -1.4916 H         1 8KK         0.0814
     54 H26         9.2112   44.2449   -0.4664 H         1 8KK         0.1994
     55 H27         8.0932   44.8864   -1.4902 H         1 8KK         0.1994
     56 H28         9.6783   44.8335   -1.9310 H         1 8KK         0.1994
     57 H29        13.3319   38.8313   -8.0818 H         1 8KK         0.1884
     58 H30        18.1588   39.6648  -13.4793 H         1 8KK         0.0599
     59 H31        15.7200   39.3248  -13.3660 H         1 8KK         0.0557
@<TRIPOS>BOND
     1    1    9 1  
     2   24    1 1  
     3    2   24 am 
     4   25    2 1  
     5    2   28 2  
     6    3    4 1  
     7    3   25 1  
     8    4    5 ar 
     9    4   27 ar 
    10    5    6 ar 
    11    6    7 ar 
    12    7   26 ar 
    13    9    8 ar 
    14    9   10 am 
    15    9   23 ar 
    16   10   11 1  
    17   11   12 1  
    18   11   16 1  
    19   12   13 1  
    20   13   14 1  
    21   13   15 1  
    22   16   17 am 
    23   16   22 2  
    24   17   18 1  
    25   18   19 1  
    26   19   20 1  
    27   20   21 1  
    28   26   27 ar 
    29    1   29 1  
    30    1   30 1  
    31    3   31 1  
    32    3   32 1  
    33    5   33 1  
    34    6   34 1  
    35    7   35 1  
    36   10   36 1  
    37   11   37 1  
    38   12   38 1  
    39   12   39 1  
    40   13   40 1  
    41   14   41 1  
    42   14   42 1  
    43   14   43 1  
    44   15   44 1  
    45   15   45 1  
    46   15   46 1  
    47   17   47 1  
    48   18   48 1  
    49   18   49 1  
    50   19   50 1  
    51   19   51 1  
    52   20   52 1  
    53   20   53 1  
    54   21   54 1  
    55   21   55 1  
    56   21   56 1  
    57   24   57 1  
    58   26   58 1  
    59   27   59 1  
@<TRIPOS>SUBSTRUCTURE
     1 8KK         1

