5n2t_ligand
  -I-interpret- 

 60 60  0  0  0  0  0  0  0  0999 V2000
   12.2140   40.1900   -6.9330 C   0  0  0  0  0
   13.0050   40.4590   -9.3260 C   0  0  0  0  0
   13.9480   40.3780  -11.5180 C   0  0  0  0  0
   15.4640   40.5680  -11.6310 C   0  0  0  0  0
   16.1140   41.3540  -10.6980 C   0  0  0  0  0
   17.4800   41.5460  -10.7600 C   0  0  0  0  0
   18.2180   40.9560  -11.7710 C   0  0  0  0  0
   12.5220   37.5790   -6.1360 O   0  0  0  0  0
   11.5460   38.7240   -6.0400 P   0  0  0  0  0
   11.3050   39.2700   -4.4650 N   0  0  0  0  0
   10.1730   38.7730   -3.6940 C   0  0  0  0  0
   10.5650   38.8490   -2.2080 C   0  0  0  0  0
    9.4820   38.3240   -1.2680 C   0  0  0  0  0
    9.7960   38.6970    0.1780 C   0  0  0  0  0
    9.3540   36.8090   -1.3920 C   0  0  0  0  0
    8.9250   39.6240   -3.9040 C   0  0  0  0  0
    9.1450   41.0080   -4.1000 N   0  0  0  0  0
    8.0410   41.9280   -4.2460 C   0  0  0  0  0
    8.3380   43.2230   -3.4840 C   0  0  0  0  0
    8.7360   43.0330   -2.0300 C   0  0  0  0  0
    8.9460   44.3520   -1.4330 N   0  3  0  0  0
    7.8150   39.1810   -3.8690 O   0  0  0  0  0
   10.1840   38.3510   -6.6120 O   0  0  0  0  0
   12.8990   39.7320   -8.1180 N   0  0  0  0  0
   13.6380   39.7310  -10.3180 O   0  0  0  0  0
   17.5820   40.1480  -12.6990 C   0  0  0  0  0
   16.2120   39.9550  -12.6340 C   0  0  0  0  0
   12.5820   41.5530   -9.4360 O   0  0  0  0  0
   12.9062   40.7336   -6.2900 H   0  0  0  0  0
   11.3998   40.8598   -7.2096 H   0  0  0  0  0
   13.5982   39.7723  -12.3540 H   0  0  0  0  0
   13.4609   41.3529  -11.5372 H   0  0  0  0  0
   15.5402   41.8289   -9.9022 H   0  0  0  0  0
   17.9775   42.1630  -10.0117 H   0  0  0  0  0
   19.2927   41.1260  -11.8366 H   0  0  0  0  0
   11.9486   39.9455   -4.0528 H   0  0  0  0  0
    9.9443   37.7565   -4.0143 H   0  0  0  0  0
   10.7307   39.8986   -1.9650 H   0  0  0  0  0
   11.4500   38.2280   -2.0693 H   0  0  0  0  0
    8.5363   38.7848   -1.5534 H   0  0  0  0  0
   10.7534   38.2617    0.4645 H   0  0  0  0  0
    9.8469   39.7820    0.2692 H   0  0  0  0  0
    9.0112   38.3128    0.8296 H   0  0  0  0  0
    9.0889   36.5508   -2.4173 H   0  0  0  0  0
   10.3046   36.3429   -1.1327 H   0  0  0  0  0
    8.5773   36.4546   -0.7143 H   0  0  0  0  0
   10.1006   41.3625   -4.1389 H   0  0  0  0  0
    7.1371   41.4722   -3.8420 H   0  0  0  0  0
    7.9005   42.1565   -5.3025 H   0  0  0  0  0
    7.4182   43.8079   -3.4855 H   0  0  0  0  0
    9.1836   43.6960   -3.9833 H   0  0  0  0  0
    9.6517   42.4451   -1.9676 H   0  0  0  0  0
    7.9493   42.5019   -1.4942 H   0  0  0  0  0
    9.2143   44.2424   -0.4550 H   0  0  0  0  0
    9.6871   44.8382   -1.9377 H   0  0  0  0  0
    8.0825   44.8917   -1.4915 H   0  0  0  0  0
    9.5895   39.1008   -6.5348 H   0  0  0  0  0
   13.3405   38.8133   -8.0811 H   0  0  0  0  0
   18.1620   39.6621  -13.4836 H   0  0  0  0  0
   15.7173   39.3213  -13.3701 H   0  0  0  0  0
  1  9  1  0  0  0
 24  1  1  0  0  0
  2 24  1  0  0  0
 25  2  1  0  0  0
  2 28  2  0  0  0
  3  4  1  0  0  0
  3 25  1  0  0  0
  4  5  4  0  0  0
  4 27  4  0  0  0
  5  6  4  0  0  0
  6  7  4  0  0  0
  7 26  4  0  0  0
  9  8  2  0  0  0
  9 10  1  0  0  0
  9 23  1  0  0  0
 10 11  1  0  0  0
 11 12  1  0  0  0
 11 16  1  0  0  0
 12 13  1  0  0  0
 13 14  1  0  0  0
 13 15  1  0  0  0
 16 17  1  0  0  0
 16 22  2  0  0  0
 17 18  1  0  0  0
 18 19  1  0  0  0
 19 20  1  0  0  0
 20 21  1  0  0  0
 26 27  4  0  0  0
  1 29  1  0  0  0
  1 30  1  0  0  0
  3 31  1  0  0  0
  3 32  1  0  0  0
  5 33  1  0  0  0
  6 34  1  0  0  0
  7 35  1  0  0  0
 10 36  1  0  0  0
 11 37  1  0  0  0
 12 38  1  0  0  0
 12 39  1  0  0  0
 13 40  1  0  0  0
 14 41  1  0  0  0
 14 42  1  0  0  0
 14 43  1  0  0  0
 15 44  1  0  0  0
 15 45  1  0  0  0
 15 46  1  0  0  0
 17 47  1  0  0  0
 18 48  1  0  0  0
 18 49  1  0  0  0
 19 50  1  0  0  0
 19 51  1  0  0  0
 20 52  1  0  0  0
 20 53  1  0  0  0
 21 54  1  0  0  0
 21 55  1  0  0  0
 21 56  1  0  0  0
 23 57  1  0  0  0
 24 58  1  0  0  0
 26 59  1  0  0  0
 27 60  1  0  0  0
M  END
$$$$
