2zcq_ligand
  -I-interpret- 

 44 45  0  0  0  0  0  0  0  0999 V2000
   15.0650   55.4960   39.8510 C   0  0  0  0  0
   14.8050   56.4450   40.8430 C   0  0  0  0  0
   13.9360   56.1490   41.8870 C   0  0  0  0  0
   13.3240   54.9060   41.9490 C   0  0  0  0  0
   13.5840   53.9560   40.9620 C   0  0  0  0  0
   14.4480   54.2580   39.9150 C   0  0  0  0  0
   14.5500   53.3870   38.8700 O   0  0  0  0  0
   15.6130   52.5420   38.8920 C   0  0  0  0  0
   15.9990   51.9690   37.6820 C   0  0  0  0  0
   16.2330   52.1440   40.0700 C   0  0  0  0  0
   17.2260   51.1730   40.0300 C   0  0  0  0  0
   17.6020   50.5940   38.8200 C   0  0  0  0  0
   16.9830   50.9950   37.6410 C   0  0  0  0  0
   17.3310   50.3430   36.2980 C   0  0  0  0  0
   18.4450   51.1010   35.5720 C   0  0  0  0  0
   19.7000   51.1160   36.4440 C   0  0  0  0  0
   20.9210   51.6820   35.7130 C   0  0  0  0  0
   21.3180   50.6870   34.2190 P   0  0  0  0  0
   22.8210   51.0640   33.7840 O   0  0  0  0  0
   21.3420   49.1510   34.7060 O   0  0  0  0  0
   20.3500   50.9090   33.1190 O   0  0  0  0  0
   22.3510   51.7060   36.8530 S   0  0  0  0  0
   23.5260   52.0920   36.1330 O   0  0  0  0  0
   22.5580   50.3410   37.4350 O   0  0  0  0  0
   22.0820   52.6710   37.9740 O   0  0  0  0  0
   15.7477   55.7282   39.0337 H   0  0  0  0  0
   15.2859   57.4222   40.7981 H   0  0  0  0  0
   13.7356   56.8940   42.6570 H   0  0  0  0  0
   12.6420   54.6725   42.7666 H   0  0  0  0  0
   13.1096   52.9759   41.0111 H   0  0  0  0  0
   15.5210   52.2910   36.7568 H   0  0  0  0  0
   15.9419   52.5912   41.0205 H   0  0  0  0  0
   17.7149   50.8617   40.9531 H   0  0  0  0  0
   18.3786   49.8294   38.7974 H   0  0  0  0  0
   16.4407   50.3560   35.6692 H   0  0  0  0  0
   17.6754   49.3266   36.4889 H   0  0  0  0  0
   18.1233   52.1245   35.3793 H   0  0  0  0  0
   18.6650   50.6067   34.6258 H   0  0  0  0  0
   19.9251   50.0870   36.7243 H   0  0  0  0  0
   19.5010   51.7529   37.3059 H   0  0  0  0  0
   20.6942   52.6972   35.3874 H   0  0  0  0  0
   23.4153   50.9068   34.5214 H   0  0  0  0  0
   21.9798   49.0517   35.4166 H   0  0  0  0  0
   21.2920   52.3987   38.4465 H   0  0  0  0  0
  1  2  4  0  0  0
  1  6  4  0  0  0
  2  3  4  0  0  0
  3  4  4  0  0  0
  4  5  4  0  0  0
  5  6  4  0  0  0
  6  7  1  0  0  0
  7  8  1  0  0  0
  8  9  4  0  0  0
  8 10  4  0  0  0
  9 13  4  0  0  0
 10 11  4  0  0  0
 11 12  4  0  0  0
 12 13  4  0  0  0
 13 14  1  0  0  0
 14 15  1  0  0  0
 15 16  1  0  0  0
 16 17  1  0  0  0
 17 18  1  0  0  0
 17 22  1  0  0  0
 18 19  1  0  0  0
 18 20  1  0  0  0
 18 21  2  0  0  0
 22 23  2  0  0  0
 22 24  2  0  0  0
 22 25  1  0  0  0
  1 26  1  0  0  0
  2 27  1  0  0  0
  3 28  1  0  0  0
  4 29  1  0  0  0
  5 30  1  0  0  0
  9 31  1  0  0  0
 10 32  1  0  0  0
 11 33  1  0  0  0
 12 34  1  0  0  0
 14 35  1  0  0  0
 14 36  1  0  0  0
 15 37  1  0  0  0
 15 38  1  0  0  0
 16 39  1  0  0  0
 16 40  1  0  0  0
 17 41  1  0  0  0
 19 42  1  0  0  0
 20 43  1  0  0  0
 25 44  1  0  0  0
M  END
$$$$
