### 
### Created by X-TOOL on Mon Sep 10 21:12:58 2018
### 

@<TRIPOS>MOLECULE
2zcq_ligand
   41    42     1     0     0
SMALL
GAST_HUCK


@<TRIPOS>ATOM
      1 CAL        15.0650   55.4960   39.8510 C.ar      1 B65        -0.0285
      2 CAH        14.8050   56.4450   40.8430 C.ar      1 B65        -0.0697
      3 CAG        13.9360   56.1490   41.8870 C.ar      1 B65        -0.0723
      4 CAI        13.3240   54.9060   41.9490 C.ar      1 B65        -0.0697
      5 CAM        13.5840   53.9560   40.9620 C.ar      1 B65        -0.0285
      6 CAU        14.4480   54.2580   39.9150 C.ar      1 B65         0.1159
      7 OAS        14.5500   53.3870   38.8700 O.3       1 B65        -0.2597
      8 CAV        15.6130   52.5420   38.8920 C.ar      1 B65         0.1094
      9 CAO        15.9990   51.9690   37.6820 C.ar      1 B65        -0.0276
     10 CAN        16.2330   52.1440   40.0700 C.ar      1 B65        -0.0354
     11 CAJ        17.2260   51.1730   40.0300 C.ar      1 B65        -0.0762
     12 CAK        17.6020   50.5940   38.8200 C.ar      1 B65        -0.0708
     13 CAT        16.9830   50.9950   37.6410 C.ar      1 B65        -0.0509
     14 CAQ        17.3310   50.3430   36.2980 C.3       1 B65        -0.0214
     15 CAP        18.4450   51.1010   35.5720 C.3       1 B65        -0.0405
     16 CAR        19.7000   51.1160   36.4440 C.3       1 B65        -0.0165
     17 CAW        20.9210   51.6820   35.7130 C.3       1 B65         0.1121
     18 PAX        21.3180   50.6870   34.2190 P.3       1 B65         0.0795
     19 OAB        22.8210   51.0640   33.7840 O.co2     1 B65        -0.5610
     20 OAC        21.3420   49.1510   34.7060 O.co2     1 B65        -0.5610
     21 OAA        20.3500   50.9090   33.1190 O.co2     1 B65        -0.5610
     22 SAY        22.3510   51.7060   36.8530 S.o2      1 B65        -0.1731
     23 OAF        23.5260   52.0920   36.1330 O.co2     1 B65        -0.4830
     24 OAE        22.5580   50.3410   37.4350 O.co2     1 B65        -0.4830
     25 OAD        22.0820   52.6710   37.9740 O.co2     1 B65        -0.4830
     26 H1         15.7440   55.7269   39.0382 H         1 B65         0.0552
     27 H2         15.2832   57.4168   40.7984 H         1 B65         0.0590
     28 H3         13.7367   56.8899   42.6528 H         1 B65         0.0528
     29 H4         12.6458   54.6738   42.7621 H         1 B65         0.0590
     30 H5         13.1123   52.9813   41.0109 H         1 B65         0.0552
     31 H6         15.5236   52.2892   36.7619 H         1 B65         0.0488
     32 H7         15.9435   52.5887   41.0153 H         1 B65         0.0496
     33 H8         17.7122   50.8634   40.9480 H         1 B65         0.0573
     34 H9         18.3743   49.8336   38.7976 H         1 B65         0.0470
     35 H10        16.4331   50.3345   35.6626 H         1 B65         0.0424
     36 H11        17.6622   49.3097   36.4786 H         1 B65         0.0424
     37 H12        18.1203   52.1340   35.3784 H         1 B65         0.0288
     38 H13        18.6672   50.6014   34.6175 H         1 B65         0.0288
     39 H14        19.9236   50.0854   36.7567 H         1 B65         0.0298
     40 H15        19.5039   51.7343   37.3324 H         1 B65         0.0298
     41 H16        20.6983   52.7123   35.3986 H         1 B65         0.0695
@<TRIPOS>BOND
     1    1    2 ar 
     2    1    6 ar 
     3    2    3 ar 
     4    3    4 ar 
     5    4    5 ar 
     6    5    6 ar 
     7    6    7 1  
     8    7    8 1  
     9    8    9 ar 
    10    8   10 ar 
    11    9   13 ar 
    12   10   11 ar 
    13   11   12 ar 
    14   12   13 ar 
    15   13   14 1  
    16   14   15 1  
    17   15   16 1  
    18   16   17 1  
    19   17   18 1  
    20   17   22 1  
    21   18   19 ar 
    22   18   20 ar 
    23   18   21 ar 
    24   22   23 ar 
    25   22   24 ar 
    26   22   25 ar 
    27    1   26 1  
    28    2   27 1  
    29    3   28 1  
    30    4   29 1  
    31    5   30 1  
    32    9   31 1  
    33   10   32 1  
    34   11   33 1  
    35   12   34 1  
    36   14   35 1  
    37   14   36 1  
    38   15   37 1  
    39   15   38 1  
    40   16   39 1  
    41   16   40 1  
    42   17   41 1  
@<TRIPOS>SUBSTRUCTURE
     1 B65         1

