3ocz_ligand
  -I-interpret- 

 37 39  0  0  0  0  0  0  0  0999 V2000
   41.6170  -13.6140   -9.4600 P   0  0  0  0  0
   41.4090  -12.8270   -8.0640 O   0  0  0  0  0
   41.9040  -12.2580  -11.0280 S   0  0  0  0  0
   40.5770  -14.5270   -9.9130 O   0  0  0  0  0
   42.9490  -14.4400   -9.3670 O   0  0  0  0  0
   44.1510  -13.8320   -8.9810 C   0  0  0  0  0
   45.3090  -14.6790   -9.3970 C   0  0  0  0  0
   46.4480  -13.8340   -9.6240 O   0  0  0  0  0
   45.7920  -15.6980   -8.3760 C   0  0  0  0  0
   45.0320  -16.8970   -8.3840 O   0  0  0  0  0
   47.2430  -15.9010   -8.7790 C   0  0  0  0  0
   47.6220  -14.4970   -9.2310 C   0  0  0  0  0
   48.2510  -13.7200   -8.1650 N   0  0  0  0  0
   48.1970  -13.8670   -6.7690 C   0  0  0  0  0
   49.0050  -12.8930   -6.2450 N   0  0  0  0  0
   49.5590  -12.1360   -7.3540 C   0  0  0  0  0
   50.4680  -11.0380   -7.4200 C   0  0  0  0  0
   51.0420  -10.5260   -6.2010 N   0  0  0  0  0
   50.8140  -10.5170   -8.6550 N   0  0  0  0  0
   50.3030  -11.0490   -9.8470 C   0  0  0  0  0
   49.4440  -12.1220   -9.7940 N   0  0  0  0  0
   49.0880  -12.6430   -8.4960 C   0  0  0  0  0
   47.3370  -16.7580   -9.9030 O   0  0  0  0  0
   42.1703  -12.2664   -7.8975 H   0  0  0  0  0
   42.8470  -11.3835  -10.6888 H   0  0  0  0  0
   44.1624  -13.7165   -7.8972 H   0  0  0  0  0
   44.2296  -12.8565   -9.4610 H   0  0  0  0  0
   44.9388  -15.2150  -10.2709 H   0  0  0  0  0
   45.6804  -15.3607   -7.3455 H   0  0  0  0  0
   45.3804  -17.4998   -7.7230 H   0  0  0  0  0
   47.8562  -16.3329   -7.9881 H   0  0  0  0  0
   48.3382  -14.5866  -10.0478 H   0  0  0  0  0
   47.6250  -14.6096   -6.2126 H   0  0  0  0  0
   50.7971  -10.9481   -5.3053 H   0  0  0  0  0
   51.6931   -9.7416   -6.2340 H   0  0  0  0  0
   50.5838  -10.6163  -10.8072 H   0  0  0  0  0
   48.2601  -16.8725  -10.1404 H   0  0  0  0  0
  1  2  1  0  0  0
  1  3  1  0  0  0
  1  4  2  0  0  0
  1  5  1  0  0  0
  5  6  1  0  0  0
  6  7  1  0  0  0
  7  8  1  0  0  0
  7  9  1  0  0  0
  8 12  1  0  0  0
  9 10  1  0  0  0
  9 11  1  0  0  0
 11 12  1  0  0  0
 11 23  1  0  0  0
 12 13  1  0  0  0
 13 14  4  0  0  0
 13 22  4  0  0  0
 14 15  4  0  0  0
 15 16  4  0  0  0
 16 17  4  0  0  0
 16 22  4  0  0  0
 17 18  1  0  0  0
 17 19  4  0  0  0
 19 20  4  0  0  0
 20 21  4  0  0  0
 21 22  4  0  0  0
  2 24  1  0  0  0
  3 25  1  0  0  0
  6 26  1  0  0  0
  6 27  1  0  0  0
  7 28  1  0  0  0
  9 29  1  0  0  0
 10 30  1  0  0  0
 11 31  1  0  0  0
 12 32  1  0  0  0
 14 33  1  0  0  0
 18 34  1  0  0  0
 18 35  1  0  0  0
 20 36  1  0  0  0
 23 37  1  0  0  0
M  END
$$$$
