### 
### Created by X-TOOL on Mon Sep 10 21:13:05 2018
### 

@<TRIPOS>MOLECULE
3ocz_ligand
   36    38     1     0     0
SMALL
GAST_HUCK


@<TRIPOS>ATOM
      1 P          41.6170  -13.6140   -9.4600 P.3       1 SRA         0.1768
      2 OP1        41.4090  -12.8270   -8.0640 O.co2     1 SRA        -0.6130
      3 S2P        41.9040  -12.2580  -11.0280 S.3       1 SRA        -0.0513
      4 OP3        40.5770  -14.5270   -9.9130 O.co2     1 SRA        -0.6130
      5 O5'        42.9490  -14.4400   -9.3670 O.3       1 SRA        -0.2664
      6 C5'        44.1510  -13.8320   -8.9810 C.3       1 SRA         0.1118
      7 C4'        45.3090  -14.6790   -9.3970 C.3       1 SRA         0.1191
      8 O4'        46.4480  -13.8340   -9.6240 O.3       1 SRA        -0.3364
      9 C3'        45.7920  -15.6980   -8.3760 C.3       1 SRA         0.1150
     10 O3'        45.0320  -16.8970   -8.3840 O.3       1 SRA        -0.3864
     11 C2'        47.2430  -15.9010   -8.7790 C.3       1 SRA         0.1385
     12 C1'        47.6220  -14.4970   -9.2310 C.3       1 SRA         0.2010
     13 N9         48.2510  -13.7200   -8.1650 N.pl3     1 SRA        -0.1919
     14 C8         48.1970  -13.8670   -6.7690 C.2       1 SRA         0.1123
     15 N7         49.0050  -12.8930   -6.2450 N.2       1 SRA        -0.2958
     16 C5         49.5590  -12.1360   -7.3540 C.ar      1 SRA         0.1045
     17 C6         50.4680  -11.0380   -7.4200 C.ar      1 SRA         0.1298
     18 N6         51.0420  -10.5260   -6.2010 N.pl3     1 SRA        -0.3152
     19 N1         50.8140  -10.5170   -8.6550 N.ar      1 SRA        -0.2698
     20 C2         50.3030  -11.0490   -9.8470 C.ar      1 SRA         0.0533
     21 N3         49.4440  -12.1220   -9.7940 N.ar      1 SRA        -0.2714
     22 C4         49.0880  -12.6430   -8.4960 C.ar      1 SRA         0.1613
     23 O2'        47.3370  -16.7580   -9.9030 O.3       1 SRA        -0.3836
     24 H1         42.7215  -11.6985  -10.8414 H         1 SRA         0.1252
     25 H2         44.1630  -13.7103   -7.8878 H         1 SRA         0.0650
     26 H3         44.2306  -12.8453   -9.4607 H         1 SRA         0.0650
     27 H4         45.0315  -15.2051  -10.3223 H         1 SRA         0.0651
     28 H5         45.7395  -15.2712   -7.3636 H         1 SRA         0.0648
     29 H6         44.1249  -16.6970   -8.1850 H         1 SRA         0.2100
     30 H7         47.8624  -16.2683   -7.9475 H         1 SRA         0.0676
     31 H8         48.3158  -14.5676  -10.0817 H         1 SRA         0.0996
     32 H9         47.6255  -14.6089   -6.2131 H         1 SRA         0.1349
     33 H10        51.6995   -9.7339   -6.2344 H         1 SRA         0.1820
     34 H11        50.7947  -10.9523   -5.2965 H         1 SRA         0.1820
     35 H12        50.5823  -10.6187  -10.8019 H         1 SRA         0.0996
     36 H13        47.1046  -17.6425   -9.6457 H         1 SRA         0.2101
@<TRIPOS>BOND
     1    1    2 ar 
     2    1    3 1  
     3    1    4 ar 
     4    1    5 1  
     5    5    6 1  
     6    6    7 1  
     7    7    8 1  
     8    7    9 1  
     9    8   12 1  
    10    9   10 1  
    11    9   11 1  
    12   11   12 1  
    13   11   23 1  
    14   12   13 1  
    15   13   14 1  
    16   13   22 1  
    17   14   15 2  
    18   15   16 1  
    19   16   17 ar 
    20   16   22 ar 
    21   17   18 1  
    22   17   19 ar 
    23   19   20 ar 
    24   20   21 ar 
    25   21   22 ar 
    26    3   24 1  
    27    6   25 1  
    28    6   26 1  
    29    7   27 1  
    30    9   28 1  
    31   10   29 1  
    32   11   30 1  
    33   12   31 1  
    34   14   32 1  
    35   18   33 1  
    36   18   34 1  
    37   20   35 1  
    38   23   36 1  
@<TRIPOS>SUBSTRUCTURE
     1 SRA         1

