6gjm_ligand
  -I-interpret- 

 44 44  0  0  0  0  0  0  0  0999 V2000
   -0.2260   17.6380   -6.3380 O   0  0  0  0  0
   -0.8200   18.2360   -5.4520 C   0  0  0  0  0
   -0.9260   17.7840   -4.2740 N   0  0  0  0  0
   -0.3370   16.5040   -3.8970 C   0  0  0  0  0
   -1.0930   15.3830   -4.5710 C   0  0  0  0  0
   -0.3610   14.2740   -4.6300 O   0  0  0  0  0
   -0.9760   13.0310   -4.9640 C   0  0  0  0  0
    0.0210   11.9090   -4.7770 C   0  0  0  0  0
   -2.2290   15.4670   -5.0090 O   0  0  0  0  0
   -1.3890   19.4110   -5.7060 N   0  0  0  0  0
   -1.9080   20.2700   -4.6530 C   0  0  0  0  0
   -0.7080   21.0820   -4.1790 C   0  0  0  0  0
   -1.1410   22.2090   -3.2680 C   0  0  0  0  0
   -1.5360   19.9270   -7.0590 C   0  0  0  0  0
   -2.9650   19.9070   -7.5500 C   0  0  0  0  0
   -3.5740   21.0860   -7.9650 C   0  0  0  0  0
   -4.8880   21.0680   -8.4170 C   0  0  0  0  0
   -5.5940   19.8710   -8.4540 C   0  0  0  0  0
   -6.8750   19.8530   -8.8950 N   0  0  0  0  0
   -4.9850   18.6920   -8.0390 C   0  0  0  0  0
   -3.6710   18.7100   -7.5870 C   0  0  0  0  0
   -1.4335   18.3259   -3.5746 H   0  0  0  0  0
   -0.3950   16.3821   -2.8154 H   0  0  0  0  0
    0.7066   16.4781   -4.2106 H   0  0  0  0  0
   -1.3046   13.0557   -6.0030 H   0  0  0  0  0
   -1.8358   12.8650   -4.3150 H   0  0  0  0  0
    0.8802   12.0762   -5.4265 H   0  0  0  0  0
    0.3487   11.8853   -3.7377 H   0  0  0  0  0
   -0.4500   10.9598   -5.0325 H   0  0  0  0  0
   -2.3506   19.6921   -3.8417 H   0  0  0  0  0
   -2.7122   20.9110   -5.0142 H   0  0  0  0  0
   -0.2088   21.5082   -5.0492 H   0  0  0  0  0
   -0.0372   20.4241   -3.6265 H   0  0  0  0  0
   -1.8198   22.8699   -3.8071 H   0  0  0  0  0
   -1.6497   21.7955   -2.3972 H   0  0  0  0  0
   -0.2645   22.7710   -2.9455 H   0  0  0  0  0
   -0.9496   19.2904   -7.7215 H   0  0  0  0  0
   -1.2018   20.9645   -7.0556 H   0  0  0  0  0
   -3.0207   22.0246   -7.9358 H   0  0  0  0  0
   -5.3651   21.9924   -8.7425 H   0  0  0  0  0
   -7.3216   20.7178   -9.2000 H   0  0  0  0  0
   -7.3928   18.9746   -8.9220 H   0  0  0  0  0
   -5.5383   17.7534   -8.0682 H   0  0  0  0  0
   -3.1939   17.7856   -7.2615 H   0  0  0  0  0
  1  2  2  0  0  0
  2  3  1  0  0  0
  2 10  1  0  0  0
  3  4  1  0  0  0
  4  5  1  0  0  0
  5  6  1  0  0  0
  5  9  2  0  0  0
  6  7  1  0  0  0
  7  8  1  0  0  0
 10 11  1  0  0  0
 10 14  1  0  0  0
 11 12  1  0  0  0
 12 13  1  0  0  0
 14 15  1  0  0  0
 15 16  4  0  0  0
 15 21  4  0  0  0
 16 17  4  0  0  0
 17 18  4  0  0  0
 18 19  1  0  0  0
 18 20  4  0  0  0
 20 21  4  0  0  0
  3 22  1  0  0  0
  4 23  1  0  0  0
  4 24  1  0  0  0
  7 25  1  0  0  0
  7 26  1  0  0  0
  8 27  1  0  0  0
  8 28  1  0  0  0
  8 29  1  0  0  0
 11 30  1  0  0  0
 11 31  1  0  0  0
 12 32  1  0  0  0
 12 33  1  0  0  0
 13 34  1  0  0  0
 13 35  1  0  0  0
 13 36  1  0  0  0
 14 37  1  0  0  0
 14 38  1  0  0  0
 16 39  1  0  0  0
 17 40  1  0  0  0
 19 41  1  0  0  0
 19 42  1  0  0  0
 20 43  1  0  0  0
 21 44  1  0  0  0
M  END
$$$$
