### 
### Created by X-TOOL on Wed Jan  1 15:39:35 2020
### 

@<TRIPOS>MOLECULE
6gjm_ligand
   44    44     1     0     0
SMALL
GAST_HUCK


@<TRIPOS>ATOM
      1 O          -0.2260   17.6380   -6.3380 O.2       1 L36        -0.4004
      2 C10        -0.8200   18.2360   -5.4520 C.2       1 L36         0.2637
      3 N2         -0.9260   17.7840   -4.2740 N.am      1 L36        -0.2529
      4 C11        -0.3370   16.5040   -3.8970 C.3       1 L36         0.1317
      5 C12        -1.0930   15.3830   -4.5710 C.2       1 L36         0.2561
      6 O2         -0.3610   14.2740   -4.6300 O.3       1 L36        -0.2756
      7 C13        -0.9760   13.0310   -4.9640 C.3       1 L36         0.0740
      8 C14         0.0210   11.9090   -4.7770 C.3       1 L36        -0.0371
      9 O1         -2.2290   15.4670   -5.0090 O.2       1 L36        -0.3682
     10 N          -1.3890   19.4110   -5.7060 N.am      1 L36        -0.2501
     11 C2         -1.9080   20.2700   -4.6530 C.3       1 L36         0.0359
     12 C1         -0.7080   21.0820   -4.1790 C.3       1 L36        -0.0354
     13 C          -1.1410   22.2090   -3.2680 C.3       1 L36        -0.0635
     14 C3         -1.5360   19.9270   -7.0590 C.3       1 L36         0.0620
     15 C4         -2.9650   19.9070   -7.5500 C.ar      1 L36        -0.0338
     16 C5         -3.5740   21.0860   -7.9650 C.ar      1 L36        -0.0698
     17 C6         -4.8880   21.0680   -8.4170 C.ar      1 L36        -0.0509
     18 C7         -5.5940   19.8710   -8.4540 C.ar      1 L36         0.0284
     19 N1         -6.8750   19.8530   -8.8950 N.pl3     1 L36        -0.3406
     20 C8         -4.9850   18.6920   -8.0390 C.ar      1 L36        -0.0509
     21 C9         -3.6710   18.7100   -7.5870 C.ar      1 L36        -0.0698
     22 H1         -1.4236   18.3153   -3.5883 H         1 L36         0.1876
     23 H2         -0.3953   16.3810   -2.8055 H         1 L36         0.0777
     24 H3          0.7162   16.4778   -4.2133 H         1 L36         0.0777
     25 H4         -1.3075   13.0559   -6.0125 H         1 L36         0.0610
     26 H5         -1.8437   12.8634   -4.3090 H         1 L36         0.0610
     27 H6         -0.4532   10.9505   -5.0345 H         1 L36         0.0255
     28 H7          0.3525   11.8840   -3.7285 H         1 L36         0.0255
     29 H8          0.8887   12.0765   -5.4320 H         1 L36         0.0255
     30 H9         -2.3169   19.6673   -3.8287 H         1 L36         0.0521
     31 H10        -2.6924   20.9332   -5.0465 H         1 L36         0.0521
     32 H11        -0.1918   21.5047   -5.0535 H         1 L36         0.0282
     33 H12        -0.0202   20.4210   -3.6313 H         1 L36         0.0282
     34 H13        -0.2572   22.7769   -2.9418 H         1 L36         0.0230
     35 H14        -1.6545   21.7930   -2.3887 H         1 L36         0.0230
     36 H15        -1.8261   22.8768   -3.8109 H         1 L36         0.0230
     37 H16        -0.9247   19.3124   -7.7362 H         1 L36         0.0658
     38 H17        -1.1738   20.9654   -7.0788 H         1 L36         0.0658
     39 H18        -3.0237   22.0195   -7.9360 H         1 L36         0.0525
     40 H19        -5.3625   21.9873   -8.7407 H         1 L36         0.0499
     41 H20        -7.3978   18.9660   -8.9223 H         1 L36         0.1698
     42 H21        -7.3260   20.7263   -9.2029 H         1 L36         0.1698
     43 H22        -5.5353   17.7585   -8.0680 H         1 L36         0.0499
     44 H23        -3.1965   17.7907   -7.2633 H         1 L36         0.0525
@<TRIPOS>BOND
     1    1    2 2  
     2    2    3 am 
     3    2   10 am 
     4    3    4 1  
     5    4    5 1  
     6    5    6 1  
     7    5    9 2  
     8    6    7 1  
     9    7    8 1  
    10   10   11 1  
    11   10   14 1  
    12   11   12 1  
    13   12   13 1  
    14   14   15 1  
    15   15   16 ar 
    16   15   21 ar 
    17   16   17 ar 
    18   17   18 ar 
    19   18   19 1  
    20   18   20 ar 
    21   20   21 ar 
    22    3   22 1  
    23    4   23 1  
    24    4   24 1  
    25    7   25 1  
    26    7   26 1  
    27    8   27 1  
    28    8   28 1  
    29    8   29 1  
    30   11   30 1  
    31   11   31 1  
    32   12   32 1  
    33   12   33 1  
    34   13   34 1  
    35   13   35 1  
    36   13   36 1  
    37   14   37 1  
    38   14   38 1  
    39   16   39 1  
    40   17   40 1  
    41   19   41 1  
    42   19   42 1  
    43   20   43 1  
    44   21   44 1  
@<TRIPOS>SUBSTRUCTURE
     1 L36         1

