### 
### Created by X-TOOL on Mon Sep 10 21:12:57 2018
### 

@<TRIPOS>MOLECULE
2vot_ligand
   41    43     1     0     0
SMALL
GAST_HUCK


@<TRIPOS>ATOM
      1 O6B        27.5020   50.0970   -3.5970 O.3       1 NHV        -0.3919
      2 C6B        26.4220   49.7350   -2.7520 C.3       1 NHV         0.0768
      3 C5B        26.7500   48.4360   -1.9860 C.3       1 NHV         0.1168
      4 C4B        27.8340   48.6540   -0.8990 C.3       1 NHV         0.1178
      5 O4B        27.4810   49.7890   -0.1050 O.3       1 NHV        -0.3858
      6 C3B        28.0520   47.4130    0.0070 C.3       1 NHV         0.1252
      7 O3B        29.4270   47.3370    0.4010 O.3       1 NHV        -0.3839
      8 O2B        28.2260   44.8710   -0.2940 O.3       1 NHV        -0.3700
      9 N1B        27.3290   47.3400   -2.7950 N.pl3     1 NHV        -0.2494
     10 C8B        27.6530   47.2770   -4.1000 C.2       1 NHV         0.0253
     11 C7B        28.3390   46.0860   -4.2550 C.2       1 NHV         0.0014
     12 N2B        28.3380   45.4180   -3.0680 N.2       1 NHV        -0.3297
     13 C1B        27.7570   46.2560   -2.1820 C.2       1 NHV         0.1428
     14 C7         28.8700   45.5700   -5.5530 C.3       1 NHV         0.0480
     15 N1         30.3190   45.7090   -5.6290 N.pl3     1 NHV        -0.3158
     16 C1         30.9860   46.8960   -5.8490 C.ar      1 NHV         0.0390
     17 C6         30.3300   48.0360   -6.3370 C.ar      1 NHV        -0.0444
     18 C5         31.0630   49.2340   -6.5470 C.ar      1 NHV        -0.0737
     19 C4         32.4430   49.3190   -6.2740 C.ar      1 NHV        -0.0751
     20 C3         33.1140   48.1760   -5.7890 C.ar      1 NHV        -0.0737
     21 C2         32.3760   46.9850   -5.5880 C.ar      1 NHV        -0.0444
     22 C20        27.6020   46.1130   -0.6840 C.3       1 NHV         0.1578
     23 H1         28.2812   50.2355   -3.0714 H         1 NHV         0.2095
     24 H2         25.5208   49.5778   -3.3628 H         1 NHV         0.0589
     25 H3         26.2392   50.5449   -2.0304 H         1 NHV         0.0589
     26 H4         25.8168   48.0868   -1.5200 H         1 NHV         0.0699
     27 H5         28.7853   48.8668   -1.4086 H         1 NHV         0.0654
     28 H6         27.4262   50.5579   -0.6603 H         1 NHV         0.2100
     29 H7         27.4414   47.5408    0.9130 H         1 NHV         0.0675
     30 H8         29.5549   46.5760    0.9551 H         1 NHV         0.2103
     31 H9         27.8528   44.1582   -0.7989 H         1 NHV         0.2138
     32 H10        27.4232   48.0100   -4.8719 H         1 NHV         0.0663
     33 H11        28.4126   46.1369   -6.3773 H         1 NHV         0.0617
     34 H12        28.6072   44.5062   -5.6494 H         1 NHV         0.0617
     35 H13        30.8867   44.8579   -5.5096 H         1 NHV         0.1774
     36 H14        29.2682   48.0025   -6.5528 H         1 NHV         0.0515
     37 H15        30.5466   50.1076   -6.9280 H         1 NHV         0.0583
     38 H16        32.9802   50.2469   -6.4339 H         1 NHV         0.0505
     39 H17        34.1760   48.2096   -5.5742 H         1 NHV         0.0583
     40 H18        32.8942   46.1068   -5.2201 H         1 NHV         0.0515
     41 H19        26.5307   46.0052   -0.4588 H         1 NHV         0.0858
@<TRIPOS>BOND
     1    1    2 1  
     2    2    3 1  
     3    3    4 1  
     4    3    9 1  
     5    4    5 1  
     6    4    6 1  
     7    6    7 1  
     8    6   22 1  
     9   22    8 1  
    10    9   10 1  
    11    9   13 1  
    12   10   11 2  
    13   11   12 1  
    14   11   14 1  
    15   12   13 2  
    16   13   22 1  
    17   14   15 1  
    18   15   16 1  
    19   16   17 ar 
    20   16   21 ar 
    21   17   18 ar 
    22   18   19 ar 
    23   19   20 ar 
    24   20   21 ar 
    25    1   23 1  
    26    2   24 1  
    27    2   25 1  
    28    3   26 1  
    29    4   27 1  
    30    5   28 1  
    31    6   29 1  
    32    7   30 1  
    33    8   31 1  
    34   10   32 1  
    35   14   33 1  
    36   14   34 1  
    37   15   35 1  
    38   17   36 1  
    39   18   37 1  
    40   19   38 1  
    41   20   39 1  
    42   21   40 1  
    43   22   41 1  
@<TRIPOS>SUBSTRUCTURE
     1 NHV         1

