2vot_ligand
  -I-interpret- 

 41 43  0  0  0  0  0  0  0  0999 V2000
   27.5020   50.0970   -3.5970 O   0  0  0  0  0
   26.4220   49.7350   -2.7520 C   0  0  0  0  0
   26.7500   48.4360   -1.9860 C   0  0  0  0  0
   27.8340   48.6540   -0.8990 C   0  0  0  0  0
   27.4810   49.7890   -0.1050 O   0  0  0  0  0
   28.0520   47.4130    0.0070 C   0  0  0  0  0
   29.4270   47.3370    0.4010 O   0  0  0  0  0
   28.2260   44.8710   -0.2940 O   0  0  0  0  0
   27.3290   47.3400   -2.7950 N   0  0  0  0  0
   27.6530   47.2770   -4.1000 C   0  0  0  0  0
   28.3390   46.0860   -4.2550 C   0  0  0  0  0
   28.3380   45.4180   -3.0680 N   0  0  0  0  0
   27.7570   46.2560   -2.1820 C   0  0  0  0  0
   28.8700   45.5700   -5.5530 C   0  0  0  0  0
   30.3190   45.7090   -5.6290 N   0  0  0  0  0
   30.9860   46.8960   -5.8490 C   0  0  0  0  0
   30.3300   48.0360   -6.3370 C   0  0  0  0  0
   31.0630   49.2340   -6.5470 C   0  0  0  0  0
   32.4430   49.3190   -6.2740 C   0  0  0  0  0
   33.1140   48.1760   -5.7890 C   0  0  0  0  0
   32.3760   46.9850   -5.5880 C   0  0  0  0  0
   27.6020   46.1130   -0.6840 C   0  0  0  0  0
   27.2829   50.9056   -4.0658 H   0  0  0  0  0
   25.5332   49.5727   -3.3618 H   0  0  0  0  0
   26.2491   50.5365   -2.0338 H   0  0  0  0  0
   25.7662   48.1649   -1.6029 H   0  0  0  0  0
   28.7796   48.8256   -1.4133 H   0  0  0  0  0
   27.3490   50.5492   -0.6762 H   0  0  0  0  0
   27.4329   47.5279    0.8967 H   0  0  0  0  0
   29.6821   48.1579    0.8283 H   0  0  0  0  0
   28.1413   44.7559    0.6553 H   0  0  0  0  0
   27.4230   48.0107   -4.8726 H   0  0  0  0  0
   28.4243   46.1475   -6.3629 H   0  0  0  0  0
   28.6195   44.5122   -5.6330 H   0  0  0  0  0
   30.8812   44.8662   -5.5107 H   0  0  0  0  0
   29.2624   48.0023   -6.5540 H   0  0  0  0  0
   30.5437   50.1125   -6.9301 H   0  0  0  0  0
   32.9831   50.2520   -6.4348 H   0  0  0  0  0
   34.1818   48.2098   -5.5730 H   0  0  0  0  0
   32.8971   46.1020   -5.2181 H   0  0  0  0  0
   26.5705   46.0149   -0.3457 H   0  0  0  0  0
  1  2  1  0  0  0
  2  3  1  0  0  0
  3  4  1  0  0  0
  3  9  1  0  0  0
  4  5  1  0  0  0
  4  6  1  0  0  0
  6  7  1  0  0  0
  6 22  1  0  0  0
 22  8  1  0  0  0
  9 10  4  0  0  0
  9 13  4  0  0  0
 10 11  4  0  0  0
 11 12  4  0  0  0
 11 14  1  0  0  0
 12 13  4  0  0  0
 13 22  1  0  0  0
 14 15  1  0  0  0
 15 16  1  0  0  0
 16 17  4  0  0  0
 16 21  4  0  0  0
 17 18  4  0  0  0
 18 19  4  0  0  0
 19 20  4  0  0  0
 20 21  4  0  0  0
  1 23  1  0  0  0
  2 24  1  0  0  0
  2 25  1  0  0  0
  3 26  1  0  0  0
  4 27  1  0  0  0
  5 28  1  0  0  0
  6 29  1  0  0  0
  7 30  1  0  0  0
  8 31  1  0  0  0
 10 32  1  0  0  0
 14 33  1  0  0  0
 14 34  1  0  0  0
 15 35  1  0  0  0
 17 36  1  0  0  0
 18 37  1  0  0  0
 19 38  1  0  0  0
 20 39  1  0  0  0
 21 40  1  0  0  0
 22 41  1  0  0  0
M  END
$$$$
