### 
### Created by X-TOOL on Mon Aug  2 16:15:16 2021
### 

@<TRIPOS>MOLECULE
6n9l_ligand
   39    41     1     0     0
SMALL
GAST_HUCK


@<TRIPOS>ATOM
      1 PB         28.7440    7.4030   17.7000 P.3       1 ADP         0.2069
      2 O1B        28.9380    8.7930   17.1630 O.co2     1 ADP        -0.5891
      3 O2B        29.4310    7.2180   19.0150 O.co2     1 ADP        -0.5891
      4 O3B        27.2910    6.9340   17.6120 O.co2     1 ADP        -0.5891
      5 PA         30.6110    5.3690   16.8270 P.3       1 ADP         0.3276
      6 O1A        31.9620    5.9330   17.1680 O.co2     1 ADP        -0.5556
      7 O2A        30.0080    4.3670   17.7650 O.co2     1 ADP        -0.5556
      8 O3A        29.5330    6.5280   16.6010 O.3       1 ADP        -0.1548
      9 O5'        30.6950    4.7530   15.3450 O.3       1 ADP        -0.2436
     10 C5'        31.3690    5.4240   14.2570 C.3       1 ADP         0.1132
     11 C4'        31.3950    4.4680   13.0590 C.3       1 ADP         0.1189
     12 O4'        32.1730    3.3290   13.4560 O.3       1 ADP        -0.3364
     13 C3'        30.0050    3.9290   12.7300 C.3       1 ADP         0.1149
     14 O3'        29.9210    3.7110   11.3160 O.3       1 ADP        -0.3864
     15 C2'        29.9240    2.5910   13.4510 C.3       1 ADP         0.1385
     16 O2'        29.0400    1.6740   12.8120 O.3       1 ADP        -0.3836
     17 C1'        31.3800    2.1360   13.3920 C.3       1 ADP         0.2010
     18 N9         31.7250    1.3250   14.5690 N.pl3     1 ADP        -0.1919
     19 C8         31.4400    1.6350   15.8580 C.2       1 ADP         0.1123
     20 N7         31.9120    0.6590   16.6780 N.2       1 ADP        -0.2958
     21 C5         32.5150   -0.2660   15.9100 C.ar      1 ADP         0.1045
     22 C6         33.2160   -1.5410   16.1560 C.ar      1 ADP         0.1298
     23 N6         33.3550   -1.9910   17.4280 N.pl3     1 ADP        -0.3152
     24 N1         33.6880   -2.2070   15.0830 N.ar      1 ADP        -0.2698
     25 C2         33.5390   -1.7510   13.8200 C.ar      1 ADP         0.0533
     26 N3         32.9100   -0.5930   13.5230 N.ar      1 ADP        -0.2714
     27 C4         32.3870    0.1690   14.5170 C.ar      1 ADP         0.1613
     28 H1         32.3969    5.6789   14.5543 H         1 ADP         0.0648
     29 H2         30.8259    6.3427   13.9905 H         1 ADP         0.0648
     30 H3         31.8308    4.9682   12.1816 H         1 ADP         0.0651
     31 H4         29.2141    4.6159   13.0657 H         1 ADP         0.0648
     32 H5         29.0592    3.3751   11.0991 H         1 ADP         0.2100
     33 H6         29.5972    2.7266   14.4925 H         1 ADP         0.0676
     34 H7         29.0253    0.8584   13.2990 H         1 ADP         0.2101
     35 H8         31.5736    1.5733   12.4669 H         1 ADP         0.0996
     36 H9         30.9131    2.5297   16.1863 H         1 ADP         0.1349
     37 H10        33.8428   -2.8799   17.6094 H         1 ADP         0.1820
     38 H11        32.9728   -1.4439   18.2125 H         1 ADP         0.1820
     39 H12        33.9433   -2.3424   13.0065 H         1 ADP         0.0996
@<TRIPOS>BOND
     1    1    2 ar 
     2    1    3 ar 
     3    1    4 ar 
     4    8    1 1  
     5    5    6 ar 
     6    5    7 ar 
     7    5    8 1  
     8    5    9 1  
     9    9   10 1  
    10   10   11 1  
    11   11   12 1  
    12   11   13 1  
    13   12   17 1  
    14   13   14 1  
    15   13   15 1  
    16   15   16 1  
    17   15   17 1  
    18   17   18 1  
    19   18   19 1  
    20   18   27 1  
    21   19   20 2  
    22   20   21 1  
    23   21   22 ar 
    24   21   27 ar 
    25   22   23 1  
    26   22   24 ar 
    27   24   25 ar 
    28   25   26 ar 
    29   26   27 ar 
    30   10   28 1  
    31   10   29 1  
    32   11   30 1  
    33   13   31 1  
    34   14   32 1  
    35   15   33 1  
    36   16   34 1  
    37   17   35 1  
    38   19   36 1  
    39   23   37 1  
    40   23   38 1  
    41   25   39 1  
@<TRIPOS>SUBSTRUCTURE
     1 ADP         1

