6n9l_ligand
  -I-interpret- 

 42 44  0  0  0  0  0  0  0  0999 V2000
   28.7440    7.4030   17.7000 P   0  0  0  0  0
   28.9380    8.7930   17.1630 O   0  0  0  0  0
   29.4310    7.2180   19.0150 O   0  0  0  0  0
   27.2910    6.9340   17.6120 O   0  0  0  0  0
   30.6110    5.3690   16.8270 P   0  0  0  0  0
   31.9620    5.9330   17.1680 O   0  0  0  0  0
   30.0080    4.3670   17.7650 O   0  0  0  0  0
   29.5330    6.5280   16.6010 O   0  0  0  0  0
   30.6950    4.7530   15.3450 O   0  0  0  0  0
   31.3690    5.4240   14.2570 C   0  0  0  0  0
   31.3950    4.4680   13.0590 C   0  0  0  0  0
   32.1730    3.3290   13.4560 O   0  0  0  0  0
   30.0050    3.9290   12.7300 C   0  0  0  0  0
   29.9210    3.7110   11.3160 O   0  0  0  0  0
   29.9240    2.5910   13.4510 C   0  0  0  0  0
   29.0400    1.6740   12.8120 O   0  0  0  0  0
   31.3800    2.1360   13.3920 C   0  0  0  0  0
   31.7250    1.3250   14.5690 N   0  0  0  0  0
   31.4400    1.6350   15.8580 C   0  0  0  0  0
   31.9120    0.6590   16.6780 N   0  0  0  0  0
   32.5150   -0.2660   15.9100 C   0  0  0  0  0
   33.2160   -1.5410   16.1560 C   0  0  0  0  0
   33.3550   -1.9910   17.4280 N   0  0  0  0  0
   33.6880   -2.2070   15.0830 N   0  0  0  0  0
   33.5390   -1.7510   13.8200 C   0  0  0  0  0
   32.9100   -0.5930   13.5230 N   0  0  0  0  0
   32.3870    0.1690   14.5170 C   0  0  0  0  0
   28.4850    8.8755   16.3207 H   0  0  0  0  0
   26.9549    7.1012   16.7284 H   0  0  0  0  0
   32.2276    6.5574   16.4889 H   0  0  0  0  0
   32.3845    5.6914   14.5491 H   0  0  0  0  0
   30.8434    6.3425   13.9960 H   0  0  0  0  0
   31.7898    5.0037   12.1958 H   0  0  0  0  0
   29.2057    4.6077   13.0277 H   0  0  0  0  0
   29.0502    3.3716   11.0969 H   0  0  0  0  0
   29.5178    2.6566   14.4604 H   0  0  0  0  0
   29.0252    0.8498   13.3041 H   0  0  0  0  0
   31.5493    1.5463   12.4911 H   0  0  0  0  0
   30.9127    2.5306   16.1866 H   0  0  0  0  0
   32.9765   -1.4492   18.2049 H   0  0  0  0  0
   33.8381   -2.8712   17.6077 H   0  0  0  0  0
   33.9456   -2.3456   13.0020 H   0  0  0  0  0
  1  2  1  0  0  0
  1  3  2  0  0  0
  1  4  1  0  0  0
  8  1  1  0  0  0
  5  6  1  0  0  0
  5  7  2  0  0  0
  5  8  1  0  0  0
  5  9  1  0  0  0
  9 10  1  0  0  0
 10 11  1  0  0  0
 11 12  1  0  0  0
 11 13  1  0  0  0
 12 17  1  0  0  0
 13 14  1  0  0  0
 13 15  1  0  0  0
 15 16  1  0  0  0
 15 17  1  0  0  0
 17 18  1  0  0  0
 18 19  4  0  0  0
 18 27  4  0  0  0
 19 20  4  0  0  0
 20 21  4  0  0  0
 21 22  4  0  0  0
 21 27  4  0  0  0
 22 23  1  0  0  0
 22 24  4  0  0  0
 24 25  4  0  0  0
 25 26  4  0  0  0
 26 27  4  0  0  0
  2 28  1  0  0  0
  4 29  1  0  0  0
  6 30  1  0  0  0
 10 31  1  0  0  0
 10 32  1  0  0  0
 11 33  1  0  0  0
 13 34  1  0  0  0
 14 35  1  0  0  0
 15 36  1  0  0  0
 16 37  1  0  0  0
 17 38  1  0  0  0
 19 39  1  0  0  0
 23 40  1  0  0  0
 23 41  1  0  0  0
 25 42  1  0  0  0
M  END
$$$$
