1pxo_ligand
  -I-interpret- 

 35 37  0  0  0  0  0  0  0  0999 V2000
   14.7020   -5.2550   10.1310 N   0  0  0  0  0
   14.7660   -5.9900   11.4310 C   0  0  0  0  0
   15.4960   -5.8690   12.5650 N   0  0  0  0  0
   15.1960   -6.8040   13.5350 C   0  0  0  0  0
   15.8970   -6.8110   14.8620 C   0  0  0  0  0
   13.6990   -7.2760   11.4070 S   0  0  0  0  0
   14.1890   -7.7700   12.9130 C   0  0  0  0  0
   13.2790   -8.8080   13.4660 C   0  0  0  0  0
   12.3730   -9.3710   12.6010 N   0  0  0  0  0
   13.3580   -9.2110   14.7900 C   0  0  0  0  0
   12.4300  -10.1380   15.1760 C   0  0  0  0  0
   11.5250  -10.6350   14.2790 N   0  0  0  0  0
   11.5050  -10.2940   13.0070 C   0  0  0  0  0
   10.5780  -10.8880   12.2810 N   0  0  0  0  0
   10.0520  -10.2350   11.0800 C   0  0  0  0  0
    8.8050  -10.6350   10.5230 C   0  0  0  0  0
   10.7100   -9.1400   10.4320 C   0  0  0  0  0
   10.1840   -8.4610    9.2830 C   0  0  0  0  0
   10.7800   -7.3830    8.6140 N   0  0  0  0  0
   10.4450   -6.2070    8.8780 O   0  0  0  0  0
   11.6570   -7.5990    7.7480 O   0  0  0  0  0
    8.9600   -8.8910    8.7530 C   0  0  0  0  0
    8.2690   -9.9550    9.3830 C   0  0  0  0  0
   14.0672   -5.5703    9.3976 H   0  0  0  0  0
   15.2932   -4.4381    9.9774 H   0  0  0  0  0
   16.9668   -6.9493   14.7056 H   0  0  0  0  0
   15.7223   -5.8619   15.3688 H   0  0  0  0  0
   15.5092   -7.6269   15.4720 H   0  0  0  0  0
   14.1078   -8.8163   15.4757 H   0  0  0  0  0
   12.4113  -10.4845   16.2093 H   0  0  0  0  0
   10.2263  -11.8049   12.5567 H   0  0  0  0  0
    8.2546  -11.4643   10.9672 H   0  0  0  0  0
   11.6652   -8.8034   10.8351 H   0  0  0  0  0
    8.5445   -8.4122    7.8663 H   0  0  0  0  0
    7.3013  -10.2649    8.9884 H   0  0  0  0  0
  2  1  1  0  0  0
  6  2  4  0  0  0
  2  3  4  0  0  0
  4  3  4  0  0  0
  7  4  4  0  0  0
  4  5  1  0  0  0
  8  7  1  0  0  0
  7  6  4  0  0  0
  8 10  4  0  0  0
  9  8  4  0  0  0
 13  9  4  0  0  0
 14 13  1  0  0  0
 13 12  4  0  0  0
 12 11  4  0  0  0
 11 10  4  0  0  0
 15 17  4  0  0  0
 15 16  4  0  0  0
 16 23  4  0  0  0
 23 22  4  0  0  0
 18 22  4  0  0  0
 18 19  1  0  0  0
 17 18  4  0  0  0
 19 21  2  0  0  0
 19 20  2  0  0  0
 14 15  1  0  0  0
  1 24  1  0  0  0
  1 25  1  0  0  0
  5 26  1  0  0  0
  5 27  1  0  0  0
  5 28  1  0  0  0
 10 29  1  0  0  0
 11 30  1  0  0  0
 14 31  1  0  0  0
 16 32  1  0  0  0
 17 33  1  0  0  0
 22 34  1  0  0  0
 23 35  1  0  0  0
M  END
$$$$
