5hz6_ligand
  -I-interpret- 

 48 50  0  0  0  0  0  0  0  0999 V2000
   15.2950   -4.0540  -24.0090 C   0  0  0  0  0
   12.5630   -4.1070  -24.5400 C   0  0  0  0  0
   14.4300   -4.0860  -22.9410 C   0  0  0  0  0
   12.5270   -4.2340  -20.9040 C   0  0  0  0  0
   11.4850   -4.3580  -19.8420 C   0  0  0  0  0
   14.3710   -4.2130  -19.1890 C   0  0  0  0  0
   10.4770   -3.2760  -19.8180 C   0  0  0  0  0
   10.8240   -5.6980  -20.0330 C   0  0  0  0  0
   19.1020   -1.8470  -20.0470 C   0  0  0  0  0
   18.3830   -0.5360  -20.2920 C   0  0  0  0  0
   19.3250   -1.9810  -18.5770 C   0  0  0  0  0
   17.0240   -5.2940  -21.4410 C   0  0  0  0  0
   18.3590   -5.3330  -21.1930 C   0  0  0  0  0
   19.0270   -4.2480  -20.7550 C   0  0  0  0  0
   18.3380   -3.0390  -20.5600 C   0  0  0  0  0
   16.9780   -2.9830  -20.8230 C   0  0  0  0  0
   16.2620   -4.1260  -21.2850 C   0  0  0  0  0
   14.8490   -4.1250  -21.5860 C   0  0  0  0  0
   13.4550   -4.0550  -25.5710 C   0  0  0  0  0
   14.8030   -4.0300  -25.2810 C   0  0  0  0  0
   13.0310   -4.1030  -23.2190 C   0  0  0  0  0
   13.8870   -4.1880  -20.5860 C   0  0  0  0  0
   12.1140   -4.1590  -22.2000 N   0  0  0  0  0
   15.9580   -4.0150  -26.5940 Cl  0  0  0  0  0
   14.5160   -3.1150  -18.5920 O   0  0  0  0  0
   14.6920   -5.2880  -18.6460 O   0  0  0  0  0
   16.3718   -4.0478  -23.8397 H   0  0  0  0  0
   11.4929   -4.1514  -24.7425 H   0  0  0  0  0
   11.9816   -4.2699  -18.8757 H   0  0  0  0  0
    9.9311   -3.2687  -20.7614 H   0  0  0  0  0
    9.7820   -3.4468  -18.9959 H   0  0  0  0  0
   10.9776   -2.3178  -19.6791 H   0  0  0  0  0
   10.1307   -5.8800  -19.2119 H   0  0  0  0  0
   10.2798   -5.7019  -20.9774 H   0  0  0  0  0
   11.5849   -6.4783  -20.0474 H   0  0  0  0  0
   20.0450   -1.8288  -20.5934 H   0  0  0  0  0
   17.4293   -0.5420  -19.7643 H   0  0  0  0  0
   18.9967    0.2873  -19.9265 H   0  0  0  0  0
   18.2076   -0.4135  -21.3608 H   0  0  0  0  0
   19.9313   -1.1463  -18.2252 H   0  0  0  0  0
   18.3638   -1.9756  -18.0630 H   0  0  0  0  0
   19.8422   -2.9186  -18.3732 H   0  0  0  0  0
   16.5257   -6.2045  -21.7738 H   0  0  0  0  0
   18.9027   -6.2642  -21.3521 H   0  0  0  0  0
   20.0964   -4.3078  -20.5529 H   0  0  0  0  0
   16.4444   -2.0444  -20.6733 H   0  0  0  0  0
   13.1088   -4.0336  -26.6043 H   0  0  0  0  0
   14.2175   -2.4012  -19.1603 H   0  0  0  0  0
  3  1  4  0  0  0
  1 20  4  0  0  0
  2 19  4  0  0  0
 21  2  4  0  0  0
 18  3  4  0  0  0
  3 21  4  0  0  0
  4  5  1  0  0  0
 22  4  4  0  0  0
  4 23  4  0  0  0
  5  7  1  0  0  0
  5  8  1  0  0  0
 22  6  1  0  0  0
  6 25  1  0  0  0
  6 26  2  0  0  0
  9 10  1  0  0  0
  9 11  1  0  0  0
 15  9  1  0  0  0
 12 13  4  0  0  0
 17 12  4  0  0  0
 13 14  4  0  0  0
 15 14  4  0  0  0
 16 15  4  0  0  0
 17 16  4  0  0  0
 18 17  1  0  0  0
 18 22  4  0  0  0
 19 20  4  0  0  0
 20 24  1  0  0  0
 21 23  4  0  0  0
  1 27  1  0  0  0
  2 28  1  0  0  0
  5 29  1  0  0  0
  7 30  1  0  0  0
  7 31  1  0  0  0
  7 32  1  0  0  0
  8 33  1  0  0  0
  8 34  1  0  0  0
  8 35  1  0  0  0
  9 36  1  0  0  0
 10 37  1  0  0  0
 10 38  1  0  0  0
 10 39  1  0  0  0
 11 40  1  0  0  0
 11 41  1  0  0  0
 11 42  1  0  0  0
 12 43  1  0  0  0
 13 44  1  0  0  0
 14 45  1  0  0  0
 16 46  1  0  0  0
 19 47  1  0  0  0
 25 48  1  0  0  0
M  END
$$$$
