### 
### Created by X-TOOL on Mon Sep 10 21:13:25 2018
### 

@<TRIPOS>MOLECULE
5hz6_ligand
   47    49     1     0     0
SMALL
GAST_HUCK


@<TRIPOS>ATOM
      1 C10        15.2950   -4.0540  -24.0090 C.ar      1 65Y        -0.0337
      2 C11        12.5630   -4.1070  -24.5400 C.ar      1 65Y        -0.0429
      3 C13        14.4300   -4.0860  -22.9410 C.ar      1 65Y         0.0118
      4 C15        12.5270   -4.2340  -20.9040 C.ar      1 65Y         0.0405
      5 C17        11.4850   -4.3580  -19.8420 C.3       1 65Y         0.0053
      6 C19        14.3710   -4.2130  -19.1890 C.2       1 65Y         0.0659
      7 C22        10.4770   -3.2760  -19.8180 C.3       1 65Y        -0.0495
      8 C23        10.8240   -5.6980  -20.0330 C.3       1 65Y        -0.0495
      9 C24        19.1020   -1.8470  -20.0470 C.3       1 65Y        -0.0125
     10 C25        18.3830   -0.5360  -20.2920 C.3       1 65Y        -0.0528
     11 C26        19.3250   -1.9810  -18.5770 C.3       1 65Y        -0.0528
     12 C1         17.0240   -5.2940  -21.4410 C.ar      1 65Y        -0.0558
     13 C2         18.3590   -5.3330  -21.1930 C.ar      1 65Y        -0.0644
     14 C3         19.0270   -4.2480  -20.7550 C.ar      1 65Y        -0.0570
     15 C4         18.3380   -3.0390  -20.5600 C.ar      1 65Y        -0.0368
     16 C5         16.9780   -2.9830  -20.8230 C.ar      1 65Y        -0.0477
     17 C6         16.2620   -4.1260  -21.2850 C.ar      1 65Y        -0.0110
     18 C7         14.8490   -4.1250  -21.5860 C.ar      1 65Y         0.0171
     19 C8         13.4550   -4.0550  -25.5710 C.ar      1 65Y        -0.0443
     20 C9         14.8030   -4.0300  -25.2810 C.ar      1 65Y         0.0444
     21 C12        13.0310   -4.1030  -23.2190 C.ar      1 65Y         0.0365
     22 C14        13.8870   -4.1880  -20.5860 C.ar      1 65Y         0.0484
     23 N16        12.1140   -4.1590  -22.2000 N.ar      1 65Y        -0.3004
     24 CL1        15.9580   -4.0150  -26.5940 Cl        1 65Y        -0.0700
     25 O20        14.5160   -3.1150  -18.5920 O.co2     1 65Y        -0.5617
     26 O21        14.6920   -5.2880  -18.6460 O.co2     1 65Y        -0.5617
     27 H1         16.3658   -4.0479  -23.8406 H         1 65Y         0.0659
     28 H2         11.4988   -4.1511  -24.7414 H         1 65Y         0.0621
     29 H3         11.9937   -4.3492  -18.8667 H         1 65Y         0.0503
     30 H4          9.7601   -3.4607  -19.0044 H         1 65Y         0.0259
     31 H5          9.9425   -3.2514  -20.7791 H         1 65Y         0.0259
     32 H6         10.9786   -2.3111  -19.6526 H         1 65Y         0.0259
     33 H7         11.5910   -6.4864  -20.0477 H         1 65Y         0.0259
     34 H8         10.2744   -5.7033  -20.9858 H         1 65Y         0.0259
     35 H9         10.1240   -5.8829  -19.2049 H         1 65Y         0.0259
     36 H10        20.0748   -1.8152  -20.5595 H         1 65Y         0.0456
     37 H11        18.9880    0.2934  -19.8969 H         1 65Y         0.0254
     38 H12        17.4074   -0.5524  -19.7842 H         1 65Y         0.0254
     39 H13        18.2317   -0.3971  -21.3726 H         1 65Y         0.0254
     40 H14        19.8469   -2.9269  -18.3701 H         1 65Y         0.0254
     41 H15        18.3557   -1.9757  -18.0571 H         1 65Y         0.0254
     42 H16        19.9368   -1.1392  -18.2207 H         1 65Y         0.0254
     43 H17        16.5285   -6.1995  -21.7720 H         1 65Y         0.0595
     44 H18        18.8997   -6.2591  -21.3513 H         1 65Y         0.0608
     45 H19        20.0906   -4.3074  -20.5541 H         1 65Y         0.0583
     46 H20        16.4473   -2.0496  -20.6741 H         1 65Y         0.0587
     47 H21        13.1107   -4.0337  -26.5986 H         1 65Y         0.0655
@<TRIPOS>BOND
     1    3    1 ar 
     2    1   20 ar 
     3    2   19 ar 
     4   21    2 ar 
     5   18    3 ar 
     6    3   21 ar 
     7    4    5 1  
     8   22    4 ar 
     9    4   23 ar 
    10    5    7 1  
    11    5    8 1  
    12   22    6 1  
    13    6   25 ar 
    14    6   26 ar 
    15    9   10 1  
    16    9   11 1  
    17   15    9 1  
    18   12   13 ar 
    19   17   12 ar 
    20   13   14 ar 
    21   15   14 ar 
    22   16   15 ar 
    23   17   16 ar 
    24   18   17 1  
    25   18   22 ar 
    26   19   20 ar 
    27   20   24 1  
    28   21   23 ar 
    29    1   27 1  
    30    2   28 1  
    31    5   29 1  
    32    7   30 1  
    33    7   31 1  
    34    7   32 1  
    35    8   33 1  
    36    8   34 1  
    37    8   35 1  
    38    9   36 1  
    39   10   37 1  
    40   10   38 1  
    41   10   39 1  
    42   11   40 1  
    43   11   41 1  
    44   11   42 1  
    45   12   43 1  
    46   13   44 1  
    47   14   45 1  
    48   16   46 1  
    49   19   47 1  
@<TRIPOS>SUBSTRUCTURE
     1 65Y         1

