### 
### Created by X-TOOL on Mon Sep 10 21:12:53 2018
### 

@<TRIPOS>MOLECULE
2aod_ligand
  126   125     1     0     0
SMALL
GAST_HUCK


@<TRIPOS>ATOM
      1 C          23.6900   24.4910   19.8030 C.2       1 2NC         0.1752
      2 O          23.3550   24.9480   20.9000 O.2       1 2NC        -0.3972
      3 CH3        24.3740   23.1370   19.6660 C.3       1 2NC         0.0258
      4 N          23.4670   25.1940   18.7010 N.am      1 2NC        -0.2635
      5 CA         22.9260   26.5240   18.6150 C.3       1 2NC         0.1566
      6 C          21.5390   26.6160   17.9360 C.2       1 2NC         0.2065
      7 O          20.8480   27.6270   17.9900 O.2       1 2NC        -0.3943
      8 CB         23.8890   27.4460   17.8340 C.3       1 2NC         0.0955
      9 OG1        24.1220   26.9880   16.4930 O.3       1 2NC        -0.3754
     10 CG2        25.2650   27.4890   18.5050 C.3       1 2NC        -0.0343
     11 CD1        24.6460   26.0750   15.5440 C.3       1 2NC         0.0371
     12 N          21.0470   25.5770   17.2940 N.am      1 2NC        -0.2634
     13 CA         19.7260   25.5600   16.6670 C.3       1 2NC         0.1334
     14 C          18.8840   24.4780   17.2950 C.2       1 2NC         0.2023
     15 O          18.8860   23.3300   16.8310 O.2       1 2NC        -0.3945
     16 CB         19.8430   25.3580   15.1460 C.3       1 2NC        -0.0037
     17 CG1        20.8810   26.2700   14.5090 C.3       1 2NC        -0.0491
     18 CG2        18.5020   25.4860   14.4760 C.3       1 2NC        -0.0582
     19 CD1        20.6860   27.7510   14.6040 C.3       1 2NC        -0.0648
     20 N          18.1720   24.8230   18.3390 N.am      1 2NC        -0.2769
     21 CA         17.4150   23.8220   19.0930 C.3       1 2NC         0.0817
     22 C          15.9130   23.8710   18.8590 C.3       1 2NC        -0.0081
     23 CB         17.7040   23.9740   20.5970 C.3       1 2NC        -0.0249
     24 CG         19.1900   24.0820   20.9290 C.3       1 2NC        -0.0510
     25 CD         19.9510   22.8410   20.5530 C.3       1 2NC        -0.0558
     26 CE         19.3540   21.5400   21.0950 C.3       1 2NC        -0.0653
     27 N          15.5820   23.6670   17.4830 N.4       1 2NC         0.2477
     28 CA         14.3430   23.0170   17.0760 C.3       1 2NC         0.0668
     29 C          14.3180   21.5580   17.5440 C.2       1 2NC         0.2268
     30 O          15.2830   20.7940   17.5200 O.2       1 2NC        -0.3907
     31 CB         14.1100   23.0340   15.5790 C.3       1 2NC         0.0079
     32 CG         13.0460   22.2360   14.8760 C.3       1 2NC        -0.0460
     33 CD         13.5680   21.0860   14.0360 C.3       1 2NC        -0.0556
     34 CE         14.5360   21.4330   12.9140 C.3       1 2NC        -0.0653
     35 N          13.1460   21.1070   17.9520 N.am      1 2NC        -0.2609
     36 CA         13.0210   19.7060   18.3690 C.3       1 2NC         0.1331
     37 C          11.5960   19.2560   18.0150 C.2       1 2NC         0.2040
     38 O          10.5890   19.9200   18.2910 O.2       1 2NC        -0.3944
     39 CB         13.3990   19.4790   19.8310 C.3       1 2NC         0.0045
     40 CG         13.2350   18.0900   20.3770 C.3       1 2NC         0.0412
     41 CD         11.8560   17.7810   20.8890 C.2       1 2NC         0.1737
     42 OE1        11.1500   18.7020   21.2310 O.2       1 2NC        -0.3973
     43 NE2        11.3750   16.5690   20.8720 N.am      1 2NC        -0.3009
     44 N          11.5170   18.0500   17.4710 N.am      1 2NC        -0.2637
     45 CA         10.2320   17.4600   17.0810 C.3       1 2NC         0.1307
     46 C          10.1360   16.0780   17.7140 C.2       1 2NC         0.1992
     47 O          11.1010   15.3060   17.6730 O.2       1 2NC        -0.3947
     48 CB         10.1140   17.3700   15.5750 C.3       1 2NC        -0.0092
     49 CG         10.1780   18.6100   14.7340 C.3       1 2NC        -0.0156
     50 CD          9.9060   18.3160   13.2640 C.3       1 2NC         0.0627
     51 NE          8.7370   18.9770   12.6640 N.pl3     1 2NC        -0.2723
     52 CZ          8.1570   18.5960   11.5270 C.cat     1 2NC         0.2882
     53 NH1         8.6190   17.5450   10.8390 N.pl3     1 2NC        -0.2849
     54 NH2         7.1000   19.1970   10.9830 N.pl3     1 2NC        -0.2849
     55 N           8.9390   15.6170   18.3610 N.am      1 2NC        -0.2990
     56 H1         24.5790   22.9356   18.6042 H         1 2NC         0.0467
     57 H2         23.7168   22.3518   20.0679 H         1 2NC         0.0467
     58 H3         25.3202   23.1458   20.2268 H         1 2NC         0.0467
     59 H4         23.7004   24.7512   17.8353 H         1 2NC         0.1883
     60 H5         22.8257   26.9048   19.6421 H         1 2NC         0.0826
     61 H6         23.4568   28.4571   17.8056 H         1 2NC         0.0642
     62 H7         25.9318   28.1503   17.9321 H         1 2NC         0.0257
     63 H8         25.6907   26.4751   18.5341 H         1 2NC         0.0257
     64 H9         25.1610   27.8726   19.5307 H         1 2NC         0.0257
     65 H10        24.4005   26.4201   14.5288 H         1 2NC         0.0524
     66 H11        24.2056   25.0807   15.7097 H         1 2NC         0.0524
     67 H12        25.7386   26.0156   15.6568 H         1 2NC         0.0524
     68 H13        21.6090   24.7522   17.2316 H         1 2NC         0.1883
     69 H14        19.2401   26.5300   16.8488 H         1 2NC         0.0802
     70 H15        20.1868   24.3254   14.9863 H         1 2NC         0.0345
     71 H16        20.9235   26.0162   13.4395 H         1 2NC         0.0267
     72 H17        21.8482   26.0392   14.9793 H         1 2NC         0.0267
     73 H18        17.7823   24.8127   14.9645 H         1 2NC         0.0235
     74 H19        18.5953   25.2148   13.4141 H         1 2NC         0.0235
     75 H20        18.1479   26.5241   14.5596 H         1 2NC         0.0235
     76 H21        21.5170   28.2635   14.0973 H         1 2NC         0.0230
     77 H22        20.6613   28.0505   15.6621 H         1 2NC         0.0230
     78 H23        19.7365   28.0275   14.1223 H         1 2NC         0.0230
     79 H24        18.1452   25.7811   18.6243 H         1 2NC         0.1857
     80 H25        17.7676   22.8311   18.7709 H         1 2NC         0.0609
     81 H26        15.5357   24.8552   19.1736 H         1 2NC         0.0837
     82 H27        15.4333   23.0850   19.4607 H         1 2NC         0.0837
     83 H28        17.2944   23.0970   21.1196 H         1 2NC         0.0289
     84 H29        17.2009   24.8835   20.9570 H         1 2NC         0.0289
     85 H30        19.2994   24.2498   22.0106 H         1 2NC         0.0266
     86 H31        19.6137   24.9363   20.3807 H         1 2NC         0.0266
     87 H32        20.9760   22.9361   20.9408 H         1 2NC         0.0263
     88 H33        19.9789   22.7747   19.4554 H         1 2NC         0.0263
     89 H34        19.9730   20.6900   20.7719 H         1 2NC         0.0230
     90 H35        18.3315   21.4168   20.7086 H         1 2NC         0.0230
     91 H36        19.3286   21.5781   22.1940 H         1 2NC         0.0230
     92 H37        16.3309   23.1179   17.0908 H         1 2NC         0.2036
     93 H38        15.5754   24.5800   17.0558 H         1 2NC         0.2036
     94 H39        13.5127   23.5552   17.5565 H         1 2NC         0.1099
     95 H40        15.0626   22.7204   15.1272 H         1 2NC         0.0346
     96 H41        13.9106   24.0848   15.3220 H         1 2NC         0.0346
     97 H42        12.4872   22.9161   14.2164 H         1 2NC         0.0269
     98 H43        12.3675   21.8238   15.6374 H         1 2NC         0.0269
     99 H44        12.6998   20.5858   13.5822 H         1 2NC         0.0263
    100 H45        14.0814   20.3872   14.7127 H         1 2NC         0.0263
    101 H46        14.8335   20.5133   12.3889 H         1 2NC         0.0230
    102 H47        15.4279   21.9188   13.3364 H         1 2NC         0.0230
    103 H48        14.0463   22.1175   12.2058 H         1 2NC         0.0230
    104 H49        12.3518   21.7141   17.9765 H         1 2NC         0.1885
    105 H50        13.7215   19.1089   17.7667 H         1 2NC         0.0801
    106 H51        12.7762   20.1495   20.4413 H         1 2NC         0.0337
    107 H52        14.4573   19.7562   19.9456 H         1 2NC         0.0337
    108 H53        13.9464   17.9603   21.2059 H         1 2NC         0.0504
    109 H54        13.4720   17.3753   19.5751 H         1 2NC         0.0504
    110 H55        10.4541   16.3916   21.2191 H         1 2NC         0.1814
    111 H56        11.9271   15.8170   20.5119 H         1 2NC         0.1814
    112 H57        12.3568   17.5278   17.3223 H         1 2NC         0.1883
    113 H58         9.4144   18.0901   17.4610 H         1 2NC         0.0800
    114 H59         9.1456   16.8937   15.3620 H         1 2NC         0.0313
    115 H60        10.9283   16.7142   15.2331 H         1 2NC         0.0313
    116 H61        11.1809   19.0520   14.8283 H         1 2NC         0.0301
    117 H62         9.4262   19.3256   15.0982 H         1 2NC         0.0301
    118 H63         9.7638   17.2300   13.1619 H         1 2NC         0.0689
    119 H64        10.7936   18.6250   12.6924 H         1 2NC         0.0689
    120 H65         8.3399   19.7898   13.1565 H         1 2NC         0.2642
    121 H66         8.1602   17.2620    9.9613 H         1 2NC         0.2615
    122 H67         9.4333   17.0191   11.1872 H         1 2NC         0.2615
    123 H68         6.6783   20.0152   11.4452 H         1 2NC         0.2615
    124 H69         6.7044   18.8435   10.1001 H         1 2NC         0.2615
    125 H70         8.9100   14.7034   18.7666 H         1 2NC         0.1815
    126 H71         8.1348   16.2097   18.4058 H         1 2NC         0.1815
@<TRIPOS>BOND
     1    1    2 2  
     2    1    3 1  
     3    1    4 am 
     4    4    5 1  
     5    5    6 1  
     6    5    8 1  
     7    6    7 2  
     8    6   12 am 
     9    8    9 1  
    10    8   10 1  
    11    9   11 1  
    12   12   13 1  
    13   13   14 1  
    14   13   16 1  
    15   14   15 2  
    16   14   20 am 
    17   16   17 1  
    18   16   18 1  
    19   17   19 1  
    20   20   21 1  
    21   21   22 1  
    22   21   23 1  
    23   22   27 1  
    24   23   24 1  
    25   24   25 1  
    26   25   26 1  
    27   27   28 1  
    28   28   29 1  
    29   28   31 1  
    30   29   30 2  
    31   29   35 am 
    32   31   32 1  
    33   32   33 1  
    34   33   34 1  
    35   35   36 1  
    36   36   37 1  
    37   36   39 1  
    38   37   38 2  
    39   37   44 am 
    40   39   40 1  
    41   40   41 1  
    42   41   42 2  
    43   41   43 am 
    44   44   45 1  
    45   45   46 1  
    46   45   48 1  
    47   46   47 2  
    48   46   55 am 
    49   48   49 1  
    50   49   50 1  
    51   50   51 1  
    52   51   52 ar 
    53   52   53 ar 
    54   52   54 ar 
    55    3   56 1  
    56    3   57 1  
    57    3   58 1  
    58    4   59 1  
    59    5   60 1  
    60    8   61 1  
    61   10   62 1  
    62   10   63 1  
    63   10   64 1  
    64   11   65 1  
    65   11   66 1  
    66   11   67 1  
    67   12   68 1  
    68   13   69 1  
    69   16   70 1  
    70   17   71 1  
    71   17   72 1  
    72   18   73 1  
    73   18   74 1  
    74   18   75 1  
    75   19   76 1  
    76   19   77 1  
    77   19   78 1  
    78   20   79 1  
    79   21   80 1  
    80   22   81 1  
    81   22   82 1  
    82   23   83 1  
    83   23   84 1  
    84   24   85 1  
    85   24   86 1  
    86   25   87 1  
    87   25   88 1  
    88   26   89 1  
    89   26   90 1  
    90   26   91 1  
    91   27   92 1  
    92   27   93 1  
    93   28   94 1  
    94   31   95 1  
    95   31   96 1  
    96   32   97 1  
    97   32   98 1  
    98   33   99 1  
    99   33  100 1  
   100   34  101 1  
   101   34  102 1  
   102   34  103 1  
   103   35  104 1  
   104   36  105 1  
   105   39  106 1  
   106   39  107 1  
   107   40  108 1  
   108   40  109 1  
   109   43  110 1  
   110   43  111 1  
   111   44  112 1  
   112   45  113 1  
   113   48  114 1  
   114   48  115 1  
   115   49  116 1  
   116   49  117 1  
   117   50  118 1  
   118   50  119 1  
   119   51  120 1  
   120   53  121 1  
   121   53  122 1  
   122   54  123 1  
   123   54  124 1  
   124   55  125 1  
   125   55  126 1  
@<TRIPOS>SUBSTRUCTURE
     1 2NC         1

