2aod_ligand
  -I-interpret- 

125124  0  0  0  0  0  0  0  0999 V2000
   23.6900   24.4910   19.8030 C   0  0  0  0  0
   23.3550   24.9480   20.9000 O   0  0  0  0  0
   24.3740   23.1370   19.6660 C   0  0  0  0  0
   23.4670   25.1940   18.7010 N   0  0  0  0  0
   22.9260   26.5240   18.6150 C   0  0  0  0  0
   21.5390   26.6160   17.9360 C   0  0  0  0  0
   20.8480   27.6270   17.9900 O   0  0  0  0  0
   23.8890   27.4460   17.8340 C   0  0  0  0  0
   24.1220   26.9880   16.4930 O   0  0  0  0  0
   25.2650   27.4890   18.5050 C   0  0  0  0  0
   24.6460   26.0750   15.5440 C   0  0  0  0  0
   21.0470   25.5770   17.2940 N   0  0  0  0  0
   19.7260   25.5600   16.6670 C   0  0  0  0  0
   18.8840   24.4780   17.2950 C   0  0  0  0  0
   18.8860   23.3300   16.8310 O   0  0  0  0  0
   19.8430   25.3580   15.1460 C   0  0  0  0  0
   20.8810   26.2700   14.5090 C   0  0  0  0  0
   18.5020   25.4860   14.4760 C   0  0  0  0  0
   20.6860   27.7510   14.6040 C   0  0  0  0  0
   18.1720   24.8230   18.3390 N   0  0  0  0  0
   17.4150   23.8220   19.0930 C   0  0  0  0  0
   15.9130   23.8710   18.8590 C   0  0  0  0  0
   17.7040   23.9740   20.5970 C   0  0  0  0  0
   19.1900   24.0820   20.9290 C   0  0  0  0  0
   19.9510   22.8410   20.5530 C   0  0  0  0  0
   19.3540   21.5400   21.0950 C   0  0  0  0  0
   15.5820   23.6670   17.4830 N   0  3  0  0  0
   14.3430   23.0170   17.0760 C   0  0  0  0  0
   14.3180   21.5580   17.5440 C   0  0  0  0  0
   15.2830   20.7940   17.5200 O   0  0  0  0  0
   14.1100   23.0340   15.5790 C   0  0  0  0  0
   13.0460   22.2360   14.8760 C   0  0  0  0  0
   13.5680   21.0860   14.0360 C   0  0  0  0  0
   14.5360   21.4330   12.9140 C   0  0  0  0  0
   13.1460   21.1070   17.9520 N   0  0  0  0  0
   13.0210   19.7060   18.3690 C   0  0  0  0  0
   11.5960   19.2560   18.0150 C   0  0  0  0  0
   10.5890   19.9200   18.2910 O   0  0  0  0  0
   13.3990   19.4790   19.8310 C   0  0  0  0  0
   13.2350   18.0900   20.3770 C   0  0  0  0  0
   11.8560   17.7810   20.8890 C   0  0  0  0  0
   11.1500   18.7020   21.2310 O   0  0  0  0  0
   11.3750   16.5690   20.8720 N   0  0  0  0  0
   11.5170   18.0500   17.4710 N   0  0  0  0  0
   10.2320   17.4600   17.0810 C   0  0  0  0  0
   10.1360   16.0780   17.7140 C   0  0  0  0  0
   11.1010   15.3060   17.6730 O   0  0  0  0  0
   10.1140   17.3700   15.5750 C   0  0  0  0  0
   10.1780   18.6100   14.7340 C   0  0  0  0  0
    9.9060   18.3160   13.2640 C   0  0  0  0  0
    8.7370   18.9770   12.6640 N   0  0  0  0  0
    8.1570   18.5960   11.5270 C   0  0  0  0  0
    8.6190   17.5450   10.8390 N   0  0  0  0  0
    7.1000   19.1970   10.9830 N   0  0  0  0  0
    8.9390   15.6170   18.3610 N   0  0  0  0  0
   25.3114   23.1470   20.2222 H   0  0  0  0  0
   23.7218   22.3599   20.0646 H   0  0  0  0  0
   24.5766   22.9385   18.6135 H   0  0  0  0  0
   23.7051   24.7424   17.8180 H   0  0  0  0  0
   22.8055   26.8386   19.6516 H   0  0  0  0  0
   23.4071   28.4236   17.8232 H   0  0  0  0  0
   25.7026   26.4907   18.4979 H   0  0  0  0  0
   25.9127   28.1750   17.9591 H   0  0  0  0  0
   25.1555   27.8318   19.5339 H   0  0  0  0  0
   25.7286   26.0170   15.6569 H   0  0  0  0  0
   24.2089   25.0903   15.7093 H   0  0  0  0  0
   24.4021   26.4181   14.5386 H   0  0  0  0  0
   21.6202   24.7357   17.2304 H   0  0  0  0  0
   19.2419   26.5226   16.8317 H   0  0  0  0  0
   20.1990   24.3395   14.9906 H   0  0  0  0  0
   20.8415   26.0454   13.4431 H   0  0  0  0  0
   21.8061   26.0694   15.0494 H   0  0  0  0  0
   17.8238   24.7326   14.8765 H   0  0  0  0  0
   18.0960   26.4797   14.6654 H   0  0  0  0  0
   18.6181   25.3382   13.4023 H   0  0  0  0  0
   19.7449   28.0236   14.1264 H   0  0  0  0  0
   20.6616   28.0464   15.6529 H   0  0  0  0  0
   21.5100   28.2576   14.1016 H   0  0  0  0  0
   18.1447   25.8002   18.6300 H   0  0  0  0  0
   17.7515   22.8524   18.7260 H   0  0  0  0  0
   15.5524   24.8560   19.1553 H   0  0  0  0  0
   15.4494   23.0766   19.4439 H   0  0  0  0  0
   17.3233   23.0815   21.0937 H   0  0  0  0  0
   17.2283   24.8970   20.9284 H   0  0  0  0  0
   19.2863   24.2244   22.0054 H   0  0  0  0  0
   19.6031   24.9164   20.3623 H   0  0  0  0  0
   20.9484   22.9368   20.9821 H   0  0  0  0  0
   19.9304   22.7720   19.4654 H   0  0  0  0  0
   19.3293   21.5791   22.1840 H   0  0  0  0  0
   18.3409   21.4191   20.7114 H   0  0  0  0  0
   19.9681   20.6986   20.7742 H   0  0  0  0  0
   16.3070   23.0295   17.1536 H   0  0  0  0  0
   15.4882   24.6139   17.1157 H   0  0  0  0  0
   13.5482   23.5952   17.5473 H   0  0  0  0  0
   15.0299   22.5969   15.1907 H   0  0  0  0  0
   13.7934   24.0615   15.3997 H   0  0  0  0  0
   12.5341   22.9181   14.1972 H   0  0  0  0  0
   12.4118   21.8021   15.6491 H   0  0  0  0  0
   12.6940   20.6513   13.5509 H   0  0  0  0  0
   14.1239   20.4457   14.7210 H   0  0  0  0  0
   14.0496   22.1113   12.2130 H   0  0  0  0  0
   15.4193   21.9144   13.3338 H   0  0  0  0  0
   14.8300   20.5210   12.3945 H   0  0  0  0  0
   12.3359   21.7263   17.9770 H   0  0  0  0  0
   13.7402   19.0857   17.8341 H   0  0  0  0  0
   12.7223   20.1060   20.4115 H   0  0  0  0  0
   14.4646   19.6983   19.8977 H   0  0  0  0  0
   13.9175   17.9964   21.2217 H   0  0  0  0  0
   13.4334   17.3993   19.5574 H   0  0  0  0  0
   10.4071   16.4005   21.1463 H   0  0  0  0  0
   11.9666   15.7895   20.5844 H   0  0  0  0  0
   12.3736   17.5174   17.3193 H   0  0  0  0  0
    9.4132   18.0889   17.4304 H   0  0  0  0  0
    9.1097   16.9814   15.4062 H   0  0  0  0  0
   10.9868   16.7925   15.2704 H   0  0  0  0  0
   11.1810   19.0282   14.8184 H   0  0  0  0  0
    9.4161   19.3034   15.0900 H   0  0  0  0  0
    9.7100   17.2455   13.2030 H   0  0  0  0  0
   10.7737   18.6863   12.7180 H   0  0  0  0  0
    8.3437   19.7819   13.1518 H   0  0  0  0  0
    8.1638   17.2639    9.9706 H   0  0  0  0  0
    9.4263   17.0252   11.1831 H   0  0  0  0  0
    6.6814   20.0063   11.4415 H   0  0  0  0  0
    8.9063   14.6816   18.7665 H   0  0  0  0  0
    8.1218   16.2251   18.4149 H   0  0  0  0  0
  1  2  2  0  0  0
  1  3  1  0  0  0
  1  4  1  0  0  0
  4  5  1  0  0  0
  5  6  1  0  0  0
  5  8  1  0  0  0
  6  7  2  0  0  0
  6 12  1  0  0  0
  8  9  1  0  0  0
  8 10  1  0  0  0
  9 11  1  0  0  0
 12 13  1  0  0  0
 13 14  1  0  0  0
 13 16  1  0  0  0
 14 15  2  0  0  0
 14 20  1  0  0  0
 16 17  1  0  0  0
 16 18  1  0  0  0
 17 19  1  0  0  0
 20 21  1  0  0  0
 21 22  1  0  0  0
 21 23  1  0  0  0
 22 27  1  0  0  0
 23 24  1  0  0  0
 24 25  1  0  0  0
 25 26  1  0  0  0
 27 28  1  0  0  0
 28 29  1  0  0  0
 28 31  1  0  0  0
 29 30  2  0  0  0
 29 35  1  0  0  0
 31 32  1  0  0  0
 32 33  1  0  0  0
 33 34  1  0  0  0
 35 36  1  0  0  0
 36 37  1  0  0  0
 36 39  1  0  0  0
 37 38  2  0  0  0
 37 44  1  0  0  0
 39 40  1  0  0  0
 40 41  1  0  0  0
 41 42  2  0  0  0
 41 43  1  0  0  0
 44 45  1  0  0  0
 45 46  1  0  0  0
 45 48  1  0  0  0
 46 47  2  0  0  0
 46 55  1  0  0  0
 48 49  1  0  0  0
 49 50  1  0  0  0
 50 51  1  0  0  0
 51 52  1  0  0  0
 52 53  1  0  0  0
 52 54  2  0  0  0
  3 56  1  0  0  0
  3 57  1  0  0  0
  3 58  1  0  0  0
  4 59  1  0  0  0
  5 60  1  0  0  0
  8 61  1  0  0  0
 10 62  1  0  0  0
 10 63  1  0  0  0
 10 64  1  0  0  0
 11 65  1  0  0  0
 11 66  1  0  0  0
 11 67  1  0  0  0
 12 68  1  0  0  0
 13 69  1  0  0  0
 16 70  1  0  0  0
 17 71  1  0  0  0
 17 72  1  0  0  0
 18 73  1  0  0  0
 18 74  1  0  0  0
 18 75  1  0  0  0
 19 76  1  0  0  0
 19 77  1  0  0  0
 19 78  1  0  0  0
 20 79  1  0  0  0
 21 80  1  0  0  0
 22 81  1  0  0  0
 22 82  1  0  0  0
 23 83  1  0  0  0
 23 84  1  0  0  0
 24 85  1  0  0  0
 24 86  1  0  0  0
 25 87  1  0  0  0
 25 88  1  0  0  0
 26 89  1  0  0  0
 26 90  1  0  0  0
 26 91  1  0  0  0
 27 92  1  0  0  0
 27 93  1  0  0  0
 28 94  1  0  0  0
 31 95  1  0  0  0
 31 96  1  0  0  0
 32 97  1  0  0  0
 32 98  1  0  0  0
 33 99  1  0  0  0
 33100  1  0  0  0
 34101  1  0  0  0
 34102  1  0  0  0
 34103  1  0  0  0
 35104  1  0  0  0
 36105  1  0  0  0
 39106  1  0  0  0
 39107  1  0  0  0
 40108  1  0  0  0
 40109  1  0  0  0
 43110  1  0  0  0
 43111  1  0  0  0
 44112  1  0  0  0
 45113  1  0  0  0
 48114  1  0  0  0
 48115  1  0  0  0
 49116  1  0  0  0
 49117  1  0  0  0
 50118  1  0  0  0
 50119  1  0  0  0
 51120  1  0  0  0
 53121  1  0  0  0
 53122  1  0  0  0
 54123  1  0  0  0
 55124  1  0  0  0
 55125  1  0  0  0
M  END
$$$$
