### 
### Created by X-TOOL on Mon Sep 10 21:13:25 2018
### 

@<TRIPOS>MOLECULE
5bwc_ligand
   53    54     1     0     0
SMALL
GAST_HUCK


@<TRIPOS>ATOM
      1 C1         59.0520  -33.1260   -1.2610 C.3       1 HBP         0.0369
      2 C5         58.1930  -35.4650   -0.8020 C.3       1 HBP        -0.0510
      3 O10        62.0340  -33.5660   -5.3320 O.3       1 HBP        -0.2565
      4 N9         61.1030  -32.6050   -4.9510 N.2       1 HBP        -0.1661
      5 C8A        60.4700  -32.7650   -3.8740 C.2       1 HBP         0.0528
      6 C7         59.4790  -31.7750   -3.3860 C.2       1 HBP         0.0558
      7 C6         59.2130  -30.6390   -4.1510 C.2       1 HBP        -0.0651
      8 C4         57.6630  -29.9110   -2.4850 C.2       1 HBP        -0.0811
      9 C3         57.9350  -31.0450   -1.7250 C.2       1 HBP         0.0019
     10 N2         58.8170  -31.9640   -2.1410 N.pl3     1 HBP        -0.2877
     11 C2         57.8770  -34.0810   -1.3610 C.3       1 HBP        -0.0306
     12 C5A        58.2980  -29.7090   -3.7010 C.3       1 HBP        -0.0281
     13 C8         56.9280  -36.3070   -0.9210 C.3       1 HBP        -0.0529
     14 C11        56.5550  -37.1500    0.2890 C.3       1 HBP        -0.0511
     15 C14        56.5110  -36.3700    1.5910 C.3       1 HBP        -0.0317
     16 C17        55.1770  -36.3870    2.3570 C.3       1 HBP         0.0354
     17 N20        55.2850  -37.0280    3.6890 N.pl3     1 HBP        -0.2859
     18 C21        54.3290  -37.9240    4.0110 C.2       1 HBP         0.0079
     19 C22        54.3410  -38.5860    5.2350 C.2       1 HBP        -0.0780
     20 C23        55.3380  -38.3230    6.1580 C.2       1 HBP        -0.1007
     21 C24        56.3130  -37.3940    5.8280 C.2       1 HBP        -0.0637
     22 C25        56.2710  -36.7310    4.5940 C.3       1 HBP         0.1003
     23 C26        57.3910  -35.7960    4.2870 C.2       1 HBP         0.0472
     24 N27        58.4430  -35.7890    4.9830 N.2       1 HBP        -0.1810
     25 O28        59.4760  -34.9400    4.5970 O.3       1 HBP        -0.2712
     26 H1         59.1585  -32.7831   -0.2212 H         1 HBP         0.0548
     27 H2         59.9718  -33.6423   -1.5729 H         1 HBP         0.0548
     28 H3         58.4925  -35.3844    0.2533 H         1 HBP         0.0266
     29 H4         59.0071  -35.9266   -1.3800 H         1 HBP         0.0266
     30 H5         61.5991  -34.4047   -5.4315 H         1 HBP         0.2801
     31 H6         60.6563  -33.6595   -3.2816 H         1 HBP         0.0758
     32 H7         59.7255  -30.4867   -5.0997 H         1 HBP         0.0435
     33 H8         56.9457  -29.1765   -2.1217 H         1 HBP         0.0315
     34 H9         57.4218  -31.1879   -0.7752 H         1 HBP         0.0806
     35 H10        57.5971  -34.1848   -2.4197 H         1 HBP         0.0287
     36 H11        57.0316  -33.6588   -0.7979 H         1 HBP         0.0287
     37 H12        57.5104  -29.6385   -4.4657 H         1 HBP         0.0436
     38 H13        58.8273  -28.7473   -3.6300 H         1 HBP         0.0436
     39 H14        57.0595  -36.9882   -1.7746 H         1 HBP         0.0265
     40 H15        56.0899  -35.6237   -1.1228 H         1 HBP         0.0265
     41 H16        57.2972  -37.9553    0.3924 H         1 HBP         0.0266
     42 H17        55.5612  -37.5876    0.1135 H         1 HBP         0.0266
     43 H18        56.7506  -35.3214    1.3606 H         1 HBP         0.0286
     44 H19        57.2831  -36.7851    2.2555 H         1 HBP         0.0286
     45 H20        54.4366  -36.9401    1.7604 H         1 HBP         0.0533
     46 H21        54.8372  -35.3497    2.4932 H         1 HBP         0.0533
     47 H22        53.5321  -38.1333    3.2989 H         1 HBP         0.0962
     48 H23        53.5639  -39.3128    5.4671 H         1 HBP         0.0266
     49 H24        55.3564  -38.8332    7.1199 H         1 HBP         0.0381
     50 H25        57.1158  -37.1784    6.5315 H         1 HBP         0.0507
     51 H26        55.6653  -35.9128    5.0107 H         1 HBP         0.0883
     52 H27        57.2993  -35.1077    3.4481 H         1 HBP         0.0859
     53 H28        59.1667  -34.0418    4.6070 H         1 HBP         0.2697
@<TRIPOS>BOND
     1   10    1 1  
     2    1   11 1  
     3   11    2 1  
     4    2   13 1  
     5    4    3 1  
     6    5    4 2  
     7    6    5 1  
     8    7    6 2  
     9    6   10 1  
    10   12    7 1  
    11    8    9 2  
    12    8   12 1  
    13    9   10 1  
    14   13   14 1  
    15   14   15 1  
    16   15   16 1  
    17   16   17 1  
    18   17   18 1  
    19   17   22 1  
    20   18   19 2  
    21   19   20 1  
    22   20   21 2  
    23   21   22 1  
    24   22   23 1  
    25   23   24 2  
    26   24   25 1  
    27    1   26 1  
    28    1   27 1  
    29    2   28 1  
    30    2   29 1  
    31    3   30 1  
    32    5   31 1  
    33    7   32 1  
    34    8   33 1  
    35    9   34 1  
    36   11   35 1  
    37   11   36 1  
    38   12   37 1  
    39   12   38 1  
    40   13   39 1  
    41   13   40 1  
    42   14   41 1  
    43   14   42 1  
    44   15   43 1  
    45   15   44 1  
    46   16   45 1  
    47   16   46 1  
    48   18   47 1  
    49   19   48 1  
    50   20   49 1  
    51   21   50 1  
    52   22   51 1  
    53   23   52 1  
    54   25   53 1  
@<TRIPOS>SUBSTRUCTURE
     1 HBP         1

