5bwc_ligand
  -I-interpret- 

 53 54  0  0  0  0  0  0  0  0999 V2000
   59.0520  -33.1260   -1.2610 C   0  0  0  0  0
   58.1930  -35.4650   -0.8020 C   0  0  0  0  0
   62.0340  -33.5660   -5.3320 O   0  0  0  0  0
   61.1030  -32.6050   -4.9510 N   0  0  0  0  0
   60.4700  -32.7650   -3.8740 C   0  0  0  0  0
   59.4790  -31.7750   -3.3860 C   0  0  0  0  0
   59.2130  -30.6390   -4.1510 C   0  0  0  0  0
   57.6630  -29.9110   -2.4850 C   0  0  0  0  0
   57.9350  -31.0450   -1.7250 C   0  0  0  0  0
   58.8170  -31.9640   -2.1410 N   0  0  0  0  0
   57.8770  -34.0810   -1.3610 C   0  0  0  0  0
   58.2980  -29.7090   -3.7010 C   0  0  0  0  0
   56.9280  -36.3070   -0.9210 C   0  0  0  0  0
   56.5550  -37.1500    0.2890 C   0  0  0  0  0
   56.5110  -36.3700    1.5910 C   0  0  0  0  0
   55.1770  -36.3870    2.3570 C   0  0  0  0  0
   55.2850  -37.0280    3.6890 N   0  0  0  0  0
   54.3290  -37.9240    4.0110 C   0  0  0  0  0
   54.3410  -38.5860    5.2350 C   0  0  0  0  0
   55.3380  -38.3230    6.1580 C   0  0  0  0  0
   56.3130  -37.3940    5.8280 C   0  0  0  0  0
   56.2710  -36.7310    4.5940 C   0  0  0  0  0
   57.3910  -35.7960    4.2870 C   0  0  0  0  0
   58.4430  -35.7890    4.9830 N   0  0  0  0  0
   59.4760  -34.9400    4.5970 O   0  0  0  0  0
   59.1579  -32.7864   -0.2307 H   0  0  0  0  0
   59.9636  -33.6375   -1.5698 H   0  0  0  0  0
   58.5064  -35.3930    0.2395 H   0  0  0  0  0
   59.0100  -35.9237   -1.3590 H   0  0  0  0  0
   62.4330  -33.3101   -6.1668 H   0  0  0  0  0
   60.6565  -33.6604   -3.2810 H   0  0  0  0  0
   59.7260  -30.4866   -5.1006 H   0  0  0  0  0
   56.9451  -29.1759   -2.1213 H   0  0  0  0  0
   57.4213  -31.1880   -0.7743 H   0  0  0  0  0
   57.6278  -34.1953   -2.4160 H   0  0  0  0  0
   57.0564  -33.6639   -0.7772 H   0  0  0  0  0
   57.4962  -29.7293   -4.4391 H   0  0  0  0  0
   58.8763  -28.7953   -3.5633 H   0  0  0  0  0
   57.1098  -37.0104   -1.7335 H   0  0  0  0  0
   56.1088  -35.6016   -1.0606 H   0  0  0  0  0
   57.3199  -37.9190    0.3970 H   0  0  0  0  0
   55.5544  -37.5450    0.1133 H   0  0  0  0  0
   56.6930  -35.3287    1.3252 H   0  0  0  0  0
   57.2426  -36.8393    2.2487 H   0  0  0  0  0
   54.4621  -36.9616    1.7680 H   0  0  0  0  0
   54.8672  -35.3531    2.5092 H   0  0  0  0  0
   53.5314  -38.1335    3.2982 H   0  0  0  0  0
   53.5632  -39.3135    5.4673 H   0  0  0  0  0
   55.3564  -38.8336    7.1208 H   0  0  0  0  0
   57.1165  -37.1782    6.5322 H   0  0  0  0  0
   55.5144  -35.9665    4.4174 H   0  0  0  0  0
   57.2993  -35.1071    3.4473 H   0  0  0  0  0
   60.2106  -35.0334    5.2079 H   0  0  0  0  0
 10  1  1  0  0  0
  1 11  1  0  0  0
 11  2  1  0  0  0
  2 13  1  0  0  0
  4  3  1  0  0  0
  5  4  2  0  0  0
  6  5  1  0  0  0
  7  6  2  0  0  0
  6 10  1  0  0  0
 12  7  1  0  0  0
  8  9  2  0  0  0
  8 12  1  0  0  0
  9 10  1  0  0  0
 13 14  1  0  0  0
 14 15  1  0  0  0
 15 16  1  0  0  0
 16 17  1  0  0  0
 17 18  1  0  0  0
 17 22  1  0  0  0
 18 19  2  0  0  0
 19 20  1  0  0  0
 20 21  2  0  0  0
 21 22  1  0  0  0
 22 23  1  0  0  0
 23 24  2  0  0  0
 24 25  1  0  0  0
  1 26  1  0  0  0
  1 27  1  0  0  0
  2 28  1  0  0  0
  2 29  1  0  0  0
  3 30  1  0  0  0
  5 31  1  0  0  0
  7 32  1  0  0  0
  8 33  1  0  0  0
  9 34  1  0  0  0
 11 35  1  0  0  0
 11 36  1  0  0  0
 12 37  1  0  0  0
 12 38  1  0  0  0
 13 39  1  0  0  0
 13 40  1  0  0  0
 14 41  1  0  0  0
 14 42  1  0  0  0
 15 43  1  0  0  0
 15 44  1  0  0  0
 16 45  1  0  0  0
 16 46  1  0  0  0
 18 47  1  0  0  0
 19 48  1  0  0  0
 20 49  1  0  0  0
 21 50  1  0  0  0
 22 51  1  0  0  0
 23 52  1  0  0  0
 25 53  1  0  0  0
M  END
$$$$
