### 
### Created by X-TOOL on Mon Sep 10 21:13:03 2018
### 

@<TRIPOS>MOLECULE
2xb7_ligand
   84    88     1     0     0
SMALL
GAST_HUCK


@<TRIPOS>ATOM
      1 C1          4.2870   15.4460   10.0290 C.ar      1 GUI         0.0977
      2 C2          4.7200   16.3370    9.0930 C.ar      1 GUI         0.1474
      3 N3          3.8990   17.4430    8.7810 N.ar      1 GUI        -0.2355
      4 C4          2.7730   17.6350    9.3430 C.ar      1 GUI         0.1902
      5 N5          2.3200   16.7180   10.3130 N.ar      1 GUI        -0.2698
      6 C6          3.0110   15.6870   10.6500 C.ar      1 GUI         0.0145
      7 N7          2.0020   18.7660    8.9820 N.pl3     1 GUI        -0.2542
      8 C8          2.2960   19.9070    8.1640 C.ar      1 GUI         0.0831
      9 C9          3.5850   20.2860    8.0120 C.ar      1 GUI        -0.0568
     10 C10         3.9490   21.4550    7.1890 C.ar      1 GUI        -0.0642
     11 C11         2.9890   22.1840    6.5630 C.ar      1 GUI         0.0202
     12 C12         1.5600   21.7710    6.7270 C.ar      1 GUI        -0.0241
     13 C13         1.2160   20.6900    7.4820 C.ar      1 GUI         0.1048
     14 O14        -0.1320   20.2700    7.6580 O.3       1 GUI        -0.3280
     15 C15        -1.1550   21.0590    7.0330 C.3       1 GUI         0.0568
     16 N16         3.3400   23.3290    5.7680 N.pl3     1 GUI        -0.3162
     17 C17         4.7730   23.5600    5.4200 C.3       1 GUI         0.0297
     18 C18         5.1220   25.0510    5.1920 C.3       1 GUI         0.0097
     19 C19         4.0770   25.6840    4.2290 C.3       1 GUI        -0.0169
     20 C20         2.7400   25.7100    5.0190 C.3       1 GUI         0.0097
     21 C21         2.2610   24.2620    5.3230 C.3       1 GUI         0.0297
     22 N22         4.4800   27.0900    3.8370 N.4       1 GUI         0.2449
     23 C23         3.6020   27.6010    2.7240 C.3       1 GUI         0.0097
     24 C24         3.9680   29.0810    2.4060 C.3       1 GUI         0.0092
     25 N25         5.4250   29.2020    2.0740 N.4       1 GUI         0.2405
     26 C26         6.3110   28.6170    3.1280 C.3       1 GUI         0.0092
     27 C27         5.9170   27.1390    3.3880 C.3       1 GUI         0.0097
     28 C28         5.7680   30.6270    1.9080 C.3       1 GUI        -0.0427
     29 N29         5.9890   16.1340    8.4520 N.pl3     1 GUI        -0.2538
     30 C30         6.5630   16.8860    7.3780 C.ar      1 GUI         0.0891
     31 C31         7.9170   16.8330    7.2040 C.ar      1 GUI         0.1116
     32 C32         8.5520   17.6050    6.0930 C.ar      1 GUI        -0.0464
     33 C33         7.7900   18.3610    5.2570 C.ar      1 GUI        -0.0715
     34 C34         6.3230   18.4210    5.4450 C.ar      1 GUI        -0.0713
     35 C35         5.7460   17.7210    6.4480 C.ar      1 GUI        -0.0363
     36 S36         8.9330   15.8540    8.3060 S.o2      1 GUI        -0.0030
     37 C37         9.7310   16.9320    9.5250 C.3       1 GUI         0.0748
     38 C38         8.7090   17.9030   10.1480 C.3       1 GUI        -0.0429
     39 C39        10.8460   17.7380    8.8330 C.3       1 GUI        -0.0429
     40 O40        10.0460   15.1680    7.5310 O.2       1 GUI        -0.1707
     41 O41         8.1120   14.8220    9.0490 O.2       1 GUI        -0.1707
     42 CL          5.2040   14.0610   10.4860 Cl        1 GUI        -0.0753
     43 H1          2.6334   15.0012   11.3998 H         1 GUI         0.0853
     44 H2          1.0526   18.7704    9.3813 H         1 GUI         0.2118
     45 H3          4.3668   19.7194    8.5049 H         1 GUI         0.0475
     46 H4          4.9910   21.7344    7.0830 H         1 GUI         0.0397
     47 H5          0.7823   22.3437    6.2349 H         1 GUI         0.0409
     48 H6         -2.1403   20.6212    7.2512 H         1 GUI         0.0573
     49 H7         -0.9932   21.0739    5.9451 H         1 GUI         0.0573
     50 H8         -1.1157   22.0865    7.4237 H         1 GUI         0.0573
     51 H9          5.0012   23.0045    4.4984 H         1 GUI         0.0511
     52 H10         5.3965   23.1786    6.2420 H         1 GUI         0.0511
     53 H11         6.1253   25.1295    4.7479 H         1 GUI         0.0339
     54 H12         5.1043   25.5836    6.1543 H         1 GUI         0.0339
     55 H13         3.9744   25.0692    3.3227 H         1 GUI         0.0852
     56 H14         1.9753   26.2264    4.4202 H         1 GUI         0.0339
     57 H15         2.8893   26.2486    5.9664 H         1 GUI         0.0339
     58 H16         1.5017   24.3118    6.1173 H         1 GUI         0.0511
     59 H17         1.8085   23.8515    4.4083 H         1 GUI         0.0511
     60 H18         4.3706   27.6890    4.6403 H         1 GUI         0.2040
     61 H19         2.5480   27.5432    3.0335 H         1 GUI         0.0868
     62 H20         3.7547   26.9852    1.8254 H         1 GUI         0.0868
     63 H21         3.7435   29.7059    3.2830 H         1 GUI         0.0868
     64 H22         3.3715   29.4251    1.5482 H         1 GUI         0.0868
     65 H23         5.5952   28.7164    1.2073 H         1 GUI         0.2035
     66 H24         6.2004   29.1931    4.0585 H         1 GUI         0.0868
     67 H25         7.3572   28.6617    2.7912 H         1 GUI         0.0868
     68 H26         6.0348   26.5569    2.4621 H         1 GUI         0.0868
     69 H27         6.5635   26.7167    4.1714 H         1 GUI         0.0868
     70 H28         5.1239   31.0715    1.1350 H         1 GUI         0.0778
     71 H29         6.8213   30.7177    1.6041 H         1 GUI         0.0778
     72 H30         5.6146   31.1545    2.8610 H         1 GUI         0.0778
     73 H31         6.5555   15.3513    8.8089 H         1 GUI         0.2165
     74 H32         9.6260   17.5624    5.9524 H         1 GUI         0.0606
     75 H33         8.2570   18.9191    4.4536 H         1 GUI         0.0520
     76 H34         5.7136   19.0237    4.7813 H         1 GUI         0.0587
     77 H35         4.6709   17.7669    6.5792 H         1 GUI         0.0537
     78 H36        10.1691   16.3124   10.3213 H         1 GUI         0.0533
     79 H37         9.2151   18.5459   10.8832 H         1 GUI         0.0248
     80 H38         7.9152   17.3287   10.6481 H         1 GUI         0.0248
     81 H39         8.2674   18.5275    9.3574 H         1 GUI         0.0248
     82 H40        11.3342   18.3945    9.5683 H         1 GUI         0.0248
     83 H41        10.4114   18.3487    8.0279 H         1 GUI         0.0248
     84 H42        11.5888   17.0466    8.4086 H         1 GUI         0.0248
@<TRIPOS>BOND
     1    1    2 ar 
     2    1    6 ar 
     3    1   42 1  
     4    2    3 ar 
     5    2   29 1  
     6    3    4 ar 
     7    4    5 ar 
     8    4    7 1  
     9    5    6 ar 
    10    7    8 1  
    11    8    9 ar 
    12    8   13 ar 
    13    9   10 ar 
    14   10   11 ar 
    15   11   12 ar 
    16   11   16 1  
    17   12   13 ar 
    18   13   14 1  
    19   14   15 1  
    20   16   17 1  
    21   16   21 1  
    22   17   18 1  
    23   18   19 1  
    24   19   20 1  
    25   19   22 1  
    26   20   21 1  
    27   22   23 1  
    28   22   27 1  
    29   23   24 1  
    30   24   25 1  
    31   25   26 1  
    32   25   28 1  
    33   26   27 1  
    34   29   30 1  
    35   30   31 ar 
    36   30   35 ar 
    37   31   32 ar 
    38   31   36 1  
    39   32   33 ar 
    40   33   34 ar 
    41   34   35 ar 
    42   36   37 1  
    43   36   40 2  
    44   36   41 2  
    45   37   38 1  
    46   37   39 1  
    47    6   43 1  
    48    7   44 1  
    49    9   45 1  
    50   10   46 1  
    51   12   47 1  
    52   15   48 1  
    53   15   49 1  
    54   15   50 1  
    55   17   51 1  
    56   17   52 1  
    57   18   53 1  
    58   18   54 1  
    59   19   55 1  
    60   20   56 1  
    61   20   57 1  
    62   21   58 1  
    63   21   59 1  
    64   22   60 1  
    65   23   61 1  
    66   23   62 1  
    67   24   63 1  
    68   24   64 1  
    69   25   65 1  
    70   26   66 1  
    71   26   67 1  
    72   27   68 1  
    73   27   69 1  
    74   28   70 1  
    75   28   71 1  
    76   28   72 1  
    77   29   73 1  
    78   32   74 1  
    79   33   75 1  
    80   34   76 1  
    81   35   77 1  
    82   37   78 1  
    83   38   79 1  
    84   38   80 1  
    85   38   81 1  
    86   39   82 1  
    87   39   83 1  
    88   39   84 1  
@<TRIPOS>SUBSTRUCTURE
     1 GUI         1

