2xb7_ligand
  -I-interpret- 

 84 88  0  0  0  0  0  0  0  0999 V2000
    4.2870   15.4460   10.0290 C   0  0  0  0  0
    4.7200   16.3370    9.0930 C   0  0  0  0  0
    3.8990   17.4430    8.7810 N   0  0  0  0  0
    2.7730   17.6350    9.3430 C   0  0  0  0  0
    2.3200   16.7180   10.3130 N   0  0  0  0  0
    3.0110   15.6870   10.6500 C   0  0  0  0  0
    2.0020   18.7660    8.9820 N   0  0  0  0  0
    2.2960   19.9070    8.1640 C   0  0  0  0  0
    3.5850   20.2860    8.0120 C   0  0  0  0  0
    3.9490   21.4550    7.1890 C   0  0  0  0  0
    2.9890   22.1840    6.5630 C   0  0  0  0  0
    1.5600   21.7710    6.7270 C   0  0  0  0  0
    1.2160   20.6900    7.4820 C   0  0  0  0  0
   -0.1320   20.2700    7.6580 O   0  0  0  0  0
   -1.1550   21.0590    7.0330 C   0  0  0  0  0
    3.3400   23.3290    5.7680 N   0  0  0  0  0
    4.7730   23.5600    5.4200 C   0  0  0  0  0
    5.1220   25.0510    5.1920 C   0  0  0  0  0
    4.0770   25.6840    4.2290 C   0  0  0  0  0
    2.7400   25.7100    5.0190 C   0  0  0  0  0
    2.2610   24.2620    5.3230 C   0  0  0  0  0
    4.4800   27.0900    3.8370 N   0  3  0  0  0
    3.6020   27.6010    2.7240 C   0  0  0  0  0
    3.9680   29.0810    2.4060 C   0  0  0  0  0
    5.4250   29.2020    2.0740 N   0  3  0  0  0
    6.3110   28.6170    3.1280 C   0  0  0  0  0
    5.9170   27.1390    3.3880 C   0  0  0  0  0
    5.7680   30.6270    1.9080 C   0  0  0  0  0
    5.9890   16.1340    8.4520 N   0  0  0  0  0
    6.5630   16.8860    7.3780 C   0  0  0  0  0
    7.9170   16.8330    7.2040 C   0  0  0  0  0
    8.5520   17.6050    6.0930 C   0  0  0  0  0
    7.7900   18.3610    5.2570 C   0  0  0  0  0
    6.3230   18.4210    5.4450 C   0  0  0  0  0
    5.7460   17.7210    6.4480 C   0  0  0  0  0
    8.9330   15.8540    8.3060 S   0  0  0  0  0
    9.7310   16.9320    9.5250 C   0  0  0  0  0
    8.7090   17.9030   10.1480 C   0  0  0  0  0
   10.8460   17.7380    8.8330 C   0  0  0  0  0
   10.0460   15.1680    7.5310 O   0  0  0  0  0
    8.1120   14.8220    9.0490 O   0  0  0  0  0
    5.2040   14.0610   10.4860 Cl  0  0  0  0  0
    2.6313   14.9974   11.4040 H   0  0  0  0  0
    1.0618   18.7704    9.3774 H   0  0  0  0  0
    4.3711   19.7163    8.5076 H   0  0  0  0  0
    4.9968   21.7360    7.0824 H   0  0  0  0  0
    0.7780   22.3469    6.2322 H   0  0  0  0  0
   -1.1149   22.0768    7.4210 H   0  0  0  0  0
   -0.9936   21.0730    5.9551 H   0  0  0  0  0
   -2.1307   20.6243    7.2499 H   0  0  0  0  0
    4.9727   23.0311    4.4881 H   0  0  0  0  0
    5.3741   23.2078    6.2583 H   0  0  0  0  0
    6.1165   25.1293    4.7527 H   0  0  0  0  0
    5.1054   25.5789    6.1455 H   0  0  0  0  0
    3.9950   25.1115    3.3051 H   0  0  0  0  0
    1.9832   26.2155    4.4191 H   0  0  0  0  0
    2.8942   26.2377    5.9602 H   0  0  0  0  0
    1.5429   24.3300    6.1402 H   0  0  0  0  0
    1.8563   23.8597    4.3943 H   0  0  0  0  0
    4.3685   27.6802    4.6614 H   0  0  0  0  0
    2.5579   27.5446    3.0319 H   0  0  0  0  0
    3.7548   26.9912    1.8336 H   0  0  0  0  0
    3.7519   29.6949    3.2804 H   0  0  0  0  0
    3.3810   29.4149    1.5504 H   0  0  0  0  0
    5.5807   28.6785    1.2125 H   0  0  0  0  0
    6.1975   29.1870    4.0502 H   0  0  0  0  0
    7.3468   28.6591    2.7911 H   0  0  0  0  0
    6.0376   26.5587    2.4732 H   0  0  0  0  0
    6.5594   26.7164    4.1605 H   0  0  0  0  0
    5.1717   31.0512    1.1002 H   0  0  0  0  0
    5.5579   31.1603    2.8351 H   0  0  0  0  0
    6.8269   30.7188    1.6665 H   0  0  0  0  0
    6.5500   15.3589    8.8055 H   0  0  0  0  0
    9.6319   17.5621    5.9516 H   0  0  0  0  0
    8.2596   18.9222    4.4492 H   0  0  0  0  0
    5.7102   19.0270    4.7777 H   0  0  0  0  0
    4.6650   17.7672    6.5799 H   0  0  0  0  0
   10.1507   16.3141   10.3189 H   0  0  0  0  0
    8.2721   18.5211    9.3637 H   0  0  0  0  0
    7.9230   17.3327   10.6431 H   0  0  0  0  0
    9.2116   18.5394   10.8763 H   0  0  0  0  0
   11.5813   17.0518    8.4129 H   0  0  0  0  0
   10.4141   18.3426    8.0355 H   0  0  0  0  0
   11.3290   18.3880    9.5626 H   0  0  0  0  0
  1  2  4  0  0  0
  1  6  4  0  0  0
  1 42  1  0  0  0
  2  3  4  0  0  0
  2 29  1  0  0  0
  3  4  4  0  0  0
  4  5  4  0  0  0
  4  7  1  0  0  0
  5  6  4  0  0  0
  7  8  1  0  0  0
  8  9  4  0  0  0
  8 13  4  0  0  0
  9 10  4  0  0  0
 10 11  4  0  0  0
 11 12  4  0  0  0
 11 16  1  0  0  0
 12 13  4  0  0  0
 13 14  1  0  0  0
 14 15  1  0  0  0
 16 17  1  0  0  0
 16 21  1  0  0  0
 17 18  1  0  0  0
 18 19  1  0  0  0
 19 20  1  0  0  0
 19 22  1  0  0  0
 20 21  1  0  0  0
 22 23  1  0  0  0
 22 27  1  0  0  0
 23 24  1  0  0  0
 24 25  1  0  0  0
 25 26  1  0  0  0
 25 28  1  0  0  0
 26 27  1  0  0  0
 29 30  1  0  0  0
 30 31  4  0  0  0
 30 35  4  0  0  0
 31 32  4  0  0  0
 31 36  1  0  0  0
 32 33  4  0  0  0
 33 34  4  0  0  0
 34 35  4  0  0  0
 36 37  1  0  0  0
 36 40  2  0  0  0
 36 41  2  0  0  0
 37 38  1  0  0  0
 37 39  1  0  0  0
  6 43  1  0  0  0
  7 44  1  0  0  0
  9 45  1  0  0  0
 10 46  1  0  0  0
 12 47  1  0  0  0
 15 48  1  0  0  0
 15 49  1  0  0  0
 15 50  1  0  0  0
 17 51  1  0  0  0
 17 52  1  0  0  0
 18 53  1  0  0  0
 18 54  1  0  0  0
 19 55  1  0  0  0
 20 56  1  0  0  0
 20 57  1  0  0  0
 21 58  1  0  0  0
 21 59  1  0  0  0
 22 60  1  0  0  0
 23 61  1  0  0  0
 23 62  1  0  0  0
 24 63  1  0  0  0
 24 64  1  0  0  0
 25 65  1  0  0  0
 26 66  1  0  0  0
 26 67  1  0  0  0
 27 68  1  0  0  0
 27 69  1  0  0  0
 28 70  1  0  0  0
 28 71  1  0  0  0
 28 72  1  0  0  0
 29 73  1  0  0  0
 32 74  1  0  0  0
 33 75  1  0  0  0
 34 76  1  0  0  0
 35 77  1  0  0  0
 37 78  1  0  0  0
 38 79  1  0  0  0
 38 80  1  0  0  0
 38 81  1  0  0  0
 39 82  1  0  0  0
 39 83  1  0  0  0
 39 84  1  0  0  0
M  END
$$$$
