1e2l_ligand
  -I-interpret- 

 34 36  0  0  0  0  0  0  0  0999 V2000
   50.2480   36.1560    0.6380 O   0  0  0  0  0
   50.7490   34.8620   -2.4060 O   0  0  0  0  0
   45.5780   31.9080   -1.4740 O   0  0  0  0  0
   43.2950   34.6050    1.4770 O   0  0  0  0  0
   46.8020   33.4610   -0.2830 N   0  0  0  0  0
   44.4640   33.2090    0.0280 N   0  0  0  0  0
   50.2620   33.9340   -0.1760 C   0  0  0  0  0
   49.7220   34.6090   -1.4330 C   0  0  0  0  0
   48.5910   33.7320   -1.9820 C   0  0  0  0  0
   48.0950   32.8740   -0.7790 C   0  0  0  0  0
   49.2220   32.9240    0.2940 C   0  0  0  0  0
   50.5670   32.4800   -0.2380 C   0  0  0  0  0
   50.8760   34.8460    0.8430 C   0  0  0  0  0
   45.6370   32.8110   -0.6370 C   0  0  0  0  0
   44.3550   34.2370    0.9510 C   0  0  0  0  0
   45.6250   34.8860    1.2590 C   0  0  0  0  0
   46.7800   34.4890    0.6550 C   0  0  0  0  0
   45.5750   36.0050    2.2950 C   0  0  0  0  0
   50.6070   36.7840    1.2692 H   0  0  0  0  0
   50.3618   35.2858   -3.1755 H   0  0  0  0  0
   43.6121   32.6919   -0.1896 H   0  0  0  0  0
   49.3326   35.5962   -1.1843 H   0  0  0  0  0
   47.7848   34.3381   -2.3952 H   0  0  0  0  0
   48.9398   33.1023   -2.8004 H   0  0  0  0  0
   47.9000   31.8346   -1.0430 H   0  0  0  0  0
   48.6548   32.6983    1.1970 H   0  0  0  0  0
   51.3731   31.8093    0.0595 H   0  0  0  0  0
   50.9535   31.7650   -0.9643 H   0  0  0  0  0
   50.7070   34.4797    1.8556 H   0  0  0  0  0
   51.9580   34.9022    0.7237 H   0  0  0  0  0
   47.7126   34.9904    0.9136 H   0  0  0  0  0
   46.2059   35.7410    3.1438 H   0  0  0  0  0
   45.9361   36.9303    1.8462 H   0  0  0  0  0
   44.5474   36.1402    2.6326 H   0  0  0  0  0
 13  1  1  0  0  0
 13  7  1  0  0  0
  7  8  1  0  0  0
  7 11  1  0  0  0
  7 12  1  0  0  0
 11 12  1  0  0  0
 11 10  1  0  0  0
 10  5  1  0  0  0
 10  9  1  0  0  0
  9  8  1  0  0  0
  8  2  1  0  0  0
  5 14  1  0  0  0
  5 17  1  0  0  0
 17 16  2  0  0  0
 16 18  1  0  0  0
 16 15  1  0  0  0
 15  4  2  0  0  0
 15  6  1  0  0  0
  6 14  1  0  0  0
 14  3  2  0  0  0
  1 19  1  0  0  0
  2 20  1  0  0  0
  6 21  1  0  0  0
  8 22  1  0  0  0
  9 23  1  0  0  0
  9 24  1  0  0  0
 10 25  1  0  0  0
 11 26  1  0  0  0
 12 27  1  0  0  0
 12 28  1  0  0  0
 13 29  1  0  0  0
 13 30  1  0  0  0
 17 31  1  0  0  0
 18 32  1  0  0  0
 18 33  1  0  0  0
 18 34  1  0  0  0
M  END
$$$$
