### 
### Created by X-TOOL on Mon Sep 10 21:12:47 2018
### 

@<TRIPOS>MOLECULE
1e2l_ligand
   34    36     1     0     0
SMALL
GAST_HUCK


@<TRIPOS>ATOM
      1 O16        50.2480   36.1560    0.6380 O.3       1 TMC        -0.3944
      2 O18        50.7490   34.8620   -2.4060 O.3       1 TMC        -0.3911
      3 O9         45.5780   31.9080   -1.4740 O.2       1 TMC        -0.3843
      4 O7         43.2950   34.6050    1.4770 O.2       1 TMC        -0.4079
      5 N8         46.8020   33.4610   -0.2830 N.am      1 TMC        -0.1975
      6 N5         44.4640   33.2090    0.0280 N.am      1 TMC        -0.1860
      7 C1         50.2620   33.9340   -0.1760 C.3       1 TMC         0.0257
      8 C10        49.7220   34.6090   -1.4330 C.3       1 TMC         0.0660
      9 C14        48.5910   33.7320   -1.9820 C.3       1 TMC         0.0040
     10 C17        48.0950   32.8740   -0.7790 C.3       1 TMC         0.0782
     11 C13        49.2220   32.9240    0.2940 C.3       1 TMC        -0.0003
     12 C15        50.5670   32.4800   -0.2380 C.3       1 TMC        -0.0364
     13 C12        50.8760   34.8460    0.8430 C.3       1 TMC         0.0525
     14 C11        45.6370   32.8110   -0.6370 C.2       1 TMC         0.3246
     15 C6         44.3550   34.2370    0.9510 C.2       1 TMC         0.1930
     16 C4         45.6250   34.8860    1.2590 C.2       1 TMC         0.0224
     17 C2         46.7800   34.4890    0.6550 C.2       1 TMC         0.0501
     18 C3         45.5750   36.0050    2.2950 C.3       1 TMC        -0.0437
     19 H1         50.6033   36.7775    1.2626 H         1 TMC         0.2094
     20 H2         50.3712   35.3081   -3.1549 H         1 TMC         0.2098
     21 H3         43.6288   32.7021   -0.1853 H         1 TMC         0.2259
     22 H4         49.2958   35.5818   -1.1466 H         1 TMC         0.0600
     23 H5         47.7736   34.3588   -2.3680 H         1 TMC         0.0319
     24 H6         48.9664   33.0825   -2.7865 H         1 TMC         0.0319
     25 H7         47.9264   31.8328   -1.0910 H         1 TMC         0.0645
     26 H8         48.8904   32.7750    1.3322 H         1 TMC         0.0337
     27 H9         51.3106   32.0473    0.4474 H         1 TMC         0.0276
     28 H10        50.6299   31.9753   -1.2134 H         1 TMC         0.0276
     29 H11        50.6711   34.4779    1.8591 H         1 TMC         0.0563
     30 H12        51.9631   34.9143    0.6900 H         1 TMC         0.0563
     31 H13        47.7118   34.9899    0.9133 H         1 TMC         0.1010
     32 H14        46.5855   36.4141    2.4418 H         1 TMC         0.0296
     33 H15        45.1991   35.6055    3.2484 H         1 TMC         0.0296
     34 H16        44.9045   36.8022    1.9416 H         1 TMC         0.0296
@<TRIPOS>BOND
     1   13    1 1  
     2   13    7 1  
     3    7    8 1  
     4    7   11 1  
     5    7   12 1  
     6   11   12 1  
     7   11   10 1  
     8   10    5 1  
     9   10    9 1  
    10    9    8 1  
    11    8    2 1  
    12    5   14 am 
    13    5   17 am 
    14   17   16 2  
    15   16   18 1  
    16   16   15 1  
    17   15    4 2  
    18   15    6 am 
    19    6   14 am 
    20   14    3 2  
    21    1   19 1  
    22    2   20 1  
    23    6   21 1  
    24    8   22 1  
    25    9   23 1  
    26    9   24 1  
    27   10   25 1  
    28   11   26 1  
    29   12   27 1  
    30   12   28 1  
    31   13   29 1  
    32   13   30 1  
    33   17   31 1  
    34   18   32 1  
    35   18   33 1  
    36   18   34 1  
@<TRIPOS>SUBSTRUCTURE
     1 TMC         1

