### 
### Created by X-TOOL on Mon Sep 10 21:13:10 2018
### 

@<TRIPOS>MOLECULE
4agc_ligand
   46    49     1     0     0
SMALL
GAST_HUCK


@<TRIPOS>ATOM
      1 O81       -26.0500   -1.5400   -9.1290 O.2       1 AXI        -0.3884
      2 C80       -26.8130   -2.1120   -9.9250 C.2       1 AXI         0.2009
      3 N82       -27.7940   -2.9030   -9.4730 N.am      1 AXI        -0.2903
      4 C88       -28.0620   -3.1670   -8.0660 C.3       1 AXI         0.0189
      5 C23       -26.6610   -1.9210  -11.4070 C.ar      1 AXI         0.0639
      6 C22       -27.8430   -2.0160  -12.2280 C.ar      1 AXI        -0.0473
      7 C21       -27.7850   -1.8450  -13.6350 C.ar      1 AXI        -0.0628
      8 C20       -26.5390   -1.5730  -14.2630 C.ar      1 AXI        -0.0630
      9 C18       -25.3980   -1.6480  -12.0440 C.ar      1 AXI         0.0508
     10 C19       -25.3620   -1.4780  -13.4740 C.ar      1 AXI        -0.0416
     11 S24       -23.9020   -1.5160  -11.1330 S.3       1 AXI        -0.0376
     12 C07       -22.9590   -0.2700  -11.9050 C.ar      1 AXI         0.0320
     13 C08       -21.5910   -0.5420  -12.2670 C.ar      1 AXI        -0.0465
     14 C09       -20.7750    0.4570  -12.8950 C.ar      1 AXI        -0.0544
     15 C12       -23.5120    1.0330  -12.1840 C.ar      1 AXI        -0.0366
     16 C11       -22.6840    2.0040  -12.8080 C.ar      1 AXI         0.0206
     17 N15       -22.9180    3.3130  -13.1930 N.2       1 AXI        -0.2533
     18 N14       -21.8720    3.8470  -13.7310 N.pl3     1 AXI        -0.2171
     19 C13       -20.8950    3.0070  -13.7590 C.2       1 AXI         0.1258
     20 C10       -21.3640    1.7410  -13.1560 C.ar      1 AXI         0.0272
     21 C16       -19.5650    3.3590  -14.3260 C.2       1 AXI        -0.0169
     22 C17       -18.3340    2.7660  -13.9990 C.2       1 AXI        -0.0447
     23 C02       -17.0050    3.1500  -14.5720 C.ar      1 AXI         0.0318
     24 N03       -16.0980    2.1400  -14.7540 N.ar      1 AXI        -0.3035
     25 C04       -14.8630    2.4370  -15.2680 C.ar      1 AXI         0.0028
     26 C05       -14.4730    3.7600  -15.6240 C.ar      1 AXI        -0.0393
     27 C06       -15.4110    4.8170  -15.4370 C.ar      1 AXI        -0.0472
     28 C01       -16.6980    4.5180  -14.9050 C.ar      1 AXI        -0.0344
     29 H1        -28.3844   -3.3437  -10.1492 H         1 AXI         0.1839
     30 H2        -28.9211   -3.8483   -7.9780 H         1 AXI         0.0483
     31 H3        -28.2898   -2.2213   -7.5524 H         1 AXI         0.0483
     32 H4        -27.1775   -3.6309   -7.6050 H         1 AXI         0.0483
     33 H5        -28.7981   -2.2229  -11.7589 H         1 AXI         0.0652
     34 H6        -28.6882   -1.9215  -14.2296 H         1 AXI         0.0573
     35 H7        -26.4876   -1.4389  -15.3375 H         1 AXI         0.0636
     36 H8        -24.4146   -1.2728  -13.9591 H         1 AXI         0.0581
     37 H9        -21.1706   -1.5197  -12.0610 H         1 AXI         0.0570
     38 H10       -19.7457    0.2493  -13.1643 H         1 AXI         0.0609
     39 H11       -24.5379    1.2662  -11.9229 H         1 AXI         0.0576
     40 H12       -21.8252    4.8118  -14.0886 H         1 AXI         0.2931
     41 H13       -19.5437    4.1555  -15.0683 H         1 AXI         0.0647
     42 H14       -18.3475    1.9594  -13.2674 H         1 AXI         0.0560
     43 H15       -14.1524    1.6307  -15.4098 H         1 AXI         0.0814
     44 H16       -13.4866    3.9582  -16.0274 H         1 AXI         0.0667
     45 H17       -15.1480    5.8361  -15.6966 H         1 AXI         0.0716
     46 H18       -17.4306    5.3025  -14.7539 H         1 AXI         0.0684
@<TRIPOS>BOND
     1    1    2 2  
     2    2    3 am 
     3    2    5 1  
     4    3    4 1  
     5    5    6 ar 
     6    5    9 ar 
     7    6    7 ar 
     8    7    8 ar 
     9    8   10 ar 
    10    9   10 ar 
    11    9   11 1  
    12   11   12 1  
    13   12   13 ar 
    14   12   15 ar 
    15   13   14 ar 
    16   14   20 ar 
    17   15   16 ar 
    18   16   17 2  
    19   16   20 ar 
    20   17   18 1  
    21   18   19 1  
    22   19   20 2  
    23   19   21 1  
    24   21   22 2  
    25   22   23 1  
    26   23   24 ar 
    27   23   28 ar 
    28   24   25 ar 
    29   25   26 ar 
    30   26   27 ar 
    31   27   28 ar 
    32    3   29 1  
    33    4   30 1  
    34    4   31 1  
    35    4   32 1  
    36    6   33 1  
    37    7   34 1  
    38    8   35 1  
    39   10   36 1  
    40   13   37 1  
    41   14   38 1  
    42   15   39 1  
    43   18   40 1  
    44   21   41 1  
    45   22   42 1  
    46   25   43 1  
    47   26   44 1  
    48   27   45 1  
    49   28   46 1  
@<TRIPOS>SUBSTRUCTURE
     1 AXI         1

