4agc_ligand
  -I-interpret- 

 45 48  0  0  0  0  0  0  0  0999 V2000
  -26.0500   -1.5400   -9.1290 O   0  0  0  0  0
  -26.8130   -2.1120   -9.9250 C   0  0  0  0  0
  -27.7940   -2.9030   -9.4730 N   0  0  0  0  0
  -28.0620   -3.1670   -8.0660 C   0  0  0  0  0
  -26.6610   -1.9210  -11.4070 C   0  0  0  0  0
  -27.8430   -2.0160  -12.2280 C   0  0  0  0  0
  -27.7850   -1.8450  -13.6350 C   0  0  0  0  0
  -26.5390   -1.5730  -14.2630 C   0  0  0  0  0
  -25.3980   -1.6480  -12.0440 C   0  0  0  0  0
  -25.3620   -1.4780  -13.4740 C   0  0  0  0  0
  -23.9020   -1.5160  -11.1330 S   0  0  0  0  0
  -22.9590   -0.2700  -11.9050 C   0  0  0  0  0
  -21.5910   -0.5420  -12.2670 C   0  0  0  0  0
  -20.7750    0.4570  -12.8950 C   0  0  0  0  0
  -23.5120    1.0330  -12.1840 C   0  0  0  0  0
  -22.6840    2.0040  -12.8080 C   0  0  0  0  0
  -22.9180    3.3130  -13.1930 N   0  0  0  0  0
  -21.8720    3.8470  -13.7310 N   0  0  0  0  0
  -20.8950    3.0070  -13.7590 C   0  0  0  0  0
  -21.3640    1.7410  -13.1560 C   0  0  0  0  0
  -19.5650    3.3590  -14.3260 C   0  0  0  0  0
  -18.3340    2.7660  -13.9990 C   0  0  0  0  0
  -17.0050    3.1500  -14.5720 C   0  0  0  0  0
  -16.0980    2.1400  -14.7540 N   0  0  0  0  0
  -14.8630    2.4370  -15.2680 C   0  0  0  0  0
  -14.4730    3.7600  -15.6240 C   0  0  0  0  0
  -15.4110    4.8170  -15.4370 C   0  0  0  0  0
  -16.6980    4.5180  -14.9050 C   0  0  0  0  0
  -28.3962   -3.3525  -10.1627 H   0  0  0  0  0
  -27.1849   -3.6265   -7.6104 H   0  0  0  0  0
  -28.2875   -2.2292   -7.5582 H   0  0  0  0  0
  -28.9134   -3.8421   -7.9801 H   0  0  0  0  0
  -28.8034   -2.2241  -11.7563 H   0  0  0  0  0
  -28.6932   -1.9219  -14.2329 H   0  0  0  0  0
  -26.4873   -1.4382  -15.3434 H   0  0  0  0  0
  -24.4093   -1.2717  -13.9618 H   0  0  0  0  0
  -21.1683   -1.5251  -12.0598 H   0  0  0  0  0
  -19.7400    0.2482  -13.1658 H   0  0  0  0  0
  -24.5436    1.2675  -11.9215 H   0  0  0  0  0
  -19.5437    4.1563  -15.0690 H   0  0  0  0  0
  -18.3476    1.9587  -13.2668 H   0  0  0  0  0
  -14.1485    1.6263  -15.4106 H   0  0  0  0  0
  -13.4811    3.9593  -16.0297 H   0  0  0  0  0
  -15.1465    5.8417  -15.6980 H   0  0  0  0  0
  -17.4347    5.3069  -14.7531 H   0  0  0  0  0
  1  2  2  0  0  0
  2  3  1  0  0  0
  2  5  1  0  0  0
  3  4  1  0  0  0
  5  6  4  0  0  0
  5  9  4  0  0  0
  6  7  4  0  0  0
  7  8  4  0  0  0
  8 10  4  0  0  0
  9 10  4  0  0  0
  9 11  1  0  0  0
 11 12  1  0  0  0
 12 13  4  0  0  0
 12 15  4  0  0  0
 13 14  4  0  0  0
 14 20  4  0  0  0
 15 16  4  0  0  0
 16 17  4  0  0  0
 16 20  4  0  0  0
 17 18  4  0  0  0
 18 19  4  0  0  0
 19 20  4  0  0  0
 19 21  1  0  0  0
 21 22  2  0  0  0
 22 23  1  0  0  0
 23 24  4  0  0  0
 23 28  4  0  0  0
 24 25  4  0  0  0
 25 26  4  0  0  0
 26 27  4  0  0  0
 27 28  4  0  0  0
  3 29  1  0  0  0
  4 30  1  0  0  0
  4 31  1  0  0  0
  4 32  1  0  0  0
  6 33  1  0  0  0
  7 34  1  0  0  0
  8 35  1  0  0  0
 10 36  1  0  0  0
 13 37  1  0  0  0
 14 38  1  0  0  0
 15 39  1  0  0  0
 21 40  1  0  0  0
 22 41  1  0  0  0
 25 42  1  0  0  0
 26 43  1  0  0  0
 27 44  1  0  0  0
 28 45  1  0  0  0
M  END
$$$$
