### 
### Created by X-TOOL on Mon Sep 10 21:13:14 2018
### 

@<TRIPOS>MOLECULE
4h85_ligand
   19    18     1     0     0
SMALL
GAST_HUCK


@<TRIPOS>ATOM
      1 CZ         -8.7350  -31.0400   14.6830 C.3       1 HRI         0.0865
      2 CH1        -8.3470  -31.8950   15.8750 C.3       1 HRI        -0.0225
      3 CF1        -9.3640  -32.1380   16.9770 C.3       1 HRI        -0.0439
      4 CI1       -10.7200  -31.5000   16.7800 C.3       1 HRI        -0.0625
      5 CI2        -8.8450  -32.1030   18.3990 C.3       1 HRI        -0.0625
      6 CH2        -8.1470  -31.6130   13.4230 C.2       1 HRI         0.0525
      7 OF2        -8.6110  -31.3190   12.2730 O.co2     1 HRI        -0.5675
      8 OF3        -7.1860  -32.4140   13.5380 O.co2     1 HRI        -0.5675
      9 CL         -8.1850  -29.4090   14.8780 Cl        1 HRI        -0.1050
     10 H1         -9.8316  -31.0357   14.5964 H         1 HRI         0.0633
     11 H2         -7.4745  -31.4160   16.3433 H         1 HRI         0.0300
     12 H3         -8.0574  -32.8809   15.4823 H         1 HRI         0.0300
     13 H4         -9.5898  -33.2061   16.8424 H         1 HRI         0.0297
     14 H5        -11.3675  -31.7434   17.6353 H         1 HRI         0.0232
     15 H6        -11.1749  -31.8837   15.8549 H         1 HRI         0.0232
     16 H7        -10.6045  -30.4086   16.7065 H         1 HRI         0.0232
     17 H8         -7.8586  -32.5880   18.4413 H         1 HRI         0.0232
     18 H9         -9.5449  -32.6375   19.0581 H         1 HRI         0.0232
     19 H10        -8.7543  -31.0581   18.7306 H         1 HRI         0.0232
@<TRIPOS>BOND
     1    1    2 1  
     2    1    6 1  
     3    1    9 1  
     4    2    3 1  
     5    3    4 1  
     6    3    5 1  
     7    6    7 ar 
     8    6    8 ar 
     9    1   10 1  
    10    2   11 1  
    11    2   12 1  
    12    3   13 1  
    13    4   14 1  
    14    4   15 1  
    15    4   16 1  
    16    5   17 1  
    17    5   18 1  
    18    5   19 1  
@<TRIPOS>SUBSTRUCTURE
     1 HRI         1

