4h85_ligand
  -I-interpret- 

 20 19  0  0  0  0  0  0  0  0999 V2000
   -8.7350  -31.0400   14.6830 C   0  0  0  0  0
   -8.3470  -31.8950   15.8750 C   0  0  0  0  0
   -9.3640  -32.1380   16.9770 C   0  0  0  0  0
  -10.7200  -31.5000   16.7800 C   0  0  0  0  0
   -8.8450  -32.1030   18.3990 C   0  0  0  0  0
   -8.1470  -31.6130   13.4230 C   0  0  0  0  0
   -8.6110  -31.3190   12.2730 O   0  0  0  0  0
   -7.1860  -32.4140   13.5380 O   0  0  0  0  0
   -8.1850  -29.4090   14.8780 Cl  0  0  0  0  0
   -9.8229  -31.0367   14.6150 H   0  0  0  0  0
   -7.5376  -31.3480   16.3585 H   0  0  0  0  0
   -8.1480  -32.8818   15.4570 H   0  0  0  0  0
   -9.5658  -33.1991   16.8308 H   0  0  0  0  0
  -11.4561  -32.0165   17.3961 H   0  0  0  0  0
  -10.6723  -30.4508   17.0715 H   0  0  0  0  0
  -11.0061  -31.5743   15.7308 H   0  0  0  0  0
   -8.7556  -31.0672   18.7264 H   0  0  0  0  0
   -9.5394  -32.6329   19.0510 H   0  0  0  0  0
   -7.8676  -32.5839   18.4396 H   0  0  0  0  0
   -9.3368  -30.6984   12.3711 H   0  0  0  0  0
  1  2  1  0  0  0
  1  6  1  0  0  0
  1  9  1  0  0  0
  2  3  1  0  0  0
  3  4  1  0  0  0
  3  5  1  0  0  0
  6  7  1  0  0  0
  6  8  2  0  0  0
  1 10  1  0  0  0
  2 11  1  0  0  0
  2 12  1  0  0  0
  3 13  1  0  0  0
  4 14  1  0  0  0
  4 15  1  0  0  0
  4 16  1  0  0  0
  5 17  1  0  0  0
  5 18  1  0  0  0
  5 19  1  0  0  0
  7 20  1  0  0  0
M  END
$$$$
