### 
### Created by X-TOOL on Mon Sep 10 21:12:47 2018
### 

@<TRIPOS>MOLECULE
1f3e_ligand
   22    23     1     0     0
SMALL
GAST_HUCK


@<TRIPOS>ATOM
      1 N1         15.8130   17.0340   24.3330 N.am      1 DPZ        -0.1858
      2 C2         15.4100   16.8310   23.0590 C.2       1 DPZ         0.2122
      3 O3         14.2620   16.4840   22.8180 O.2       1 DPZ        -0.3942
      4 C4         16.3980   17.0440   21.9070 C.ar      1 DPZ         0.0741
      5 C5         16.0490   16.8630   20.5380 C.ar      1 DPZ         0.0498
      6 C6         17.0210   17.0850   19.5410 C.ar      1 DPZ        -0.0180
      7 C7         18.3310   17.4810   19.8690 C.ar      1 DPZ         0.0340
      8 C8         18.6610   17.6670   21.2200 C.ar      1 DPZ        -0.0315
      9 C9         17.7070   17.4550   22.2340 C.ar      1 DPZ         0.0494
     10 C10        18.0910   17.6500   23.6870 C.2       1 DPZ         0.2241
     11 O11        19.2290   18.0040   23.9540 O.2       1 DPZ        -0.3809
     12 N12        17.1690   17.4470   24.6490 N.am      1 DPZ        -0.1824
     13 N13        19.2570   17.7000   18.8950 N.pl3     1 DPZ        -0.3359
     14 N14        14.8030   16.4740   20.1640 N.pl3     1 DPZ        -0.3343
     15 H1         15.1601   16.8962   25.0778 H         1 DPZ         0.2150
     16 H2         16.7535   16.9477   18.4995 H         1 DPZ         0.0453
     17 H3         19.6644   17.9783   21.4870 H         1 DPZ         0.0481
     18 H4         17.4255   17.5844   25.6057 H         1 DPZ         0.2159
     19 H5         19.0065   17.5611   17.9056 H         1 DPZ         0.1734
     20 H6         20.2080   18.0046   19.1476 H         1 DPZ         0.1734
     21 H7         14.0796   16.3070   20.8780 H         1 DPZ         0.1742
     22 H8         14.5812   16.3459   19.1663 H         1 DPZ         0.1742
@<TRIPOS>BOND
     1    1   12 1  
     2    1    2 am 
     3    2    4 1  
     4    2    3 2  
     5    4    9 ar 
     6    4    5 ar 
     7    5   14 1  
     8    5    6 ar 
     9    6    7 ar 
    10    7   13 1  
    11    7    8 ar 
    12    8    9 ar 
    13    9   10 1  
    14   10   12 am 
    15   10   11 2  
    16    1   15 1  
    17    6   16 1  
    18    8   17 1  
    19   12   18 1  
    20   13   19 1  
    21   13   20 1  
    22   14   21 1  
    23   14   22 1  
@<TRIPOS>SUBSTRUCTURE
     1 DPZ         1

