1f3e_ligand
  -I-interpret- 

 22 23  0  0  0  0  0  0  0  0999 V2000
   15.8130   17.0340   24.3330 N   0  0  0  0  0
   15.4100   16.8310   23.0590 C   0  0  0  0  0
   14.2620   16.4840   22.8180 O   0  0  0  0  0
   16.3980   17.0440   21.9070 C   0  0  0  0  0
   16.0490   16.8630   20.5380 C   0  0  0  0  0
   17.0210   17.0850   19.5410 C   0  0  0  0  0
   18.3310   17.4810   19.8690 C   0  0  0  0  0
   18.6610   17.6670   21.2200 C   0  0  0  0  0
   17.7070   17.4550   22.2340 C   0  0  0  0  0
   18.0910   17.6500   23.6870 C   0  0  0  0  0
   19.2290   18.0040   23.9540 O   0  0  0  0  0
   17.1690   17.4470   24.6490 N   0  0  0  0  0
   19.2570   17.7000   18.8950 N   0  0  0  0  0
   14.8030   16.4740   20.1640 N   0  0  0  0  0
   15.1471   16.8934   25.0927 H   0  0  0  0  0
   16.7520   16.9469   18.4938 H   0  0  0  0  0
   19.6700   17.9800   21.4885 H   0  0  0  0  0
   17.4306   17.5872   25.6249 H   0  0  0  0  0
   19.0045   17.5773   17.9144 H   0  0  0  0  0
   20.2031   17.9867   19.1460 H   0  0  0  0  0
   14.0882   16.3034   20.8713 H   0  0  0  0  0
   14.5818   16.3524   19.1757 H   0  0  0  0  0
  1 12  1  0  0  0
  1  2  1  0  0  0
  2  4  1  0  0  0
  2  3  2  0  0  0
  4  9  4  0  0  0
  4  5  4  0  0  0
  5 14  1  0  0  0
  5  6  4  0  0  0
  6  7  4  0  0  0
  7 13  1  0  0  0
  7  8  4  0  0  0
  8  9  4  0  0  0
  9 10  1  0  0  0
 10 12  1  0  0  0
 10 11  2  0  0  0
  1 15  1  0  0  0
  6 16  1  0  0  0
  8 17  1  0  0  0
 12 18  1  0  0  0
 13 19  1  0  0  0
 13 20  1  0  0  0
 14 21  1  0  0  0
 14 22  1  0  0  0
M  END
$$$$
