### 
### Created by X-TOOL on Mon Aug  2 16:14:10 2021
### 

@<TRIPOS>MOLECULE
6i66_ligand
   25    25     1     0     0
SMALL
GAST_HUCK


@<TRIPOS>ATOM
      1 CAA       -16.9820   -0.8310  -26.2630 C.3       1 H4Q        -0.0634
      2 CAH       -16.5710   -2.2740  -26.0410 C.3       1 H4Q        -0.0450
      3 CAK       -17.0940   -3.1690  -27.1690 C.3       1 H4Q        -0.0155
      4 CAB       -16.4750   -2.7200  -28.4970 C.3       1 H4Q        -0.0540
      5 CAJ       -16.6660   -4.4470  -26.8470 C.ar      1 H4Q        -0.0509
      6 CAF       -15.4930   -4.9360  -27.4040 C.ar      1 H4Q        -0.0685
      7 CAD       -15.0420   -6.2000  -27.0690 C.ar      1 H4Q        -0.0398
      8 CAI       -15.7580   -6.9740  -26.1700 C.ar      1 H4Q         0.0805
      9 OAC       -15.2990   -8.2130  -25.8510 O.3       1 H4Q        -0.3376
     10 CAE       -16.9340   -6.4880  -25.6010 C.ar      1 H4Q        -0.0398
     11 CAG       -17.3890   -5.2190  -25.9380 C.ar      1 H4Q        -0.0685
     12 H1        -16.5956   -0.2093  -25.4419 H         1 H4Q         0.0231
     13 H2        -18.0795   -0.7623  -26.2898 H         1 H4Q         0.0231
     14 H3        -16.5689   -0.4749  -27.2182 H         1 H4Q         0.0231
     15 H4        -16.9838   -2.6231  -25.0830 H         1 H4Q         0.0285
     16 H5        -15.4731   -2.3357  -26.0115 H         1 H4Q         0.0285
     17 H6        -18.1915   -3.1274  -27.2308 H         1 H4Q         0.0437
     18 H7        -16.8478   -3.3601  -29.3102 H         1 H4Q         0.0252
     19 H8        -15.3798   -2.8031  -28.4377 H         1 H4Q         0.0252
     20 H9        -16.7532   -1.6746  -28.6964 H         1 H4Q         0.0252
     21 H10       -14.9298   -4.3272  -28.1020 H         1 H4Q         0.0530
     22 H11       -14.1292   -6.5847  -27.5094 H         1 H4Q         0.0525
     23 H12       -15.8913   -8.6184  -25.2285 H         1 H4Q         0.2458
     24 H13       -17.4912   -7.0973  -24.8987 H         1 H4Q         0.0525
     25 H14       -18.3003   -4.8315  -25.4971 H         1 H4Q         0.0530
@<TRIPOS>BOND
     1    1    2 1  
     2    2    3 1  
     3    3    4 1  
     4    3    5 1  
     5    5    6 ar 
     6    5   11 ar 
     7    6    7 ar 
     8    7    8 ar 
     9    8    9 1  
    10    8   10 ar 
    11   10   11 ar 
    12    1   12 1  
    13    1   13 1  
    14    1   14 1  
    15    2   15 1  
    16    2   16 1  
    17    3   17 1  
    18    4   18 1  
    19    4   19 1  
    20    4   20 1  
    21    6   21 1  
    22    7   22 1  
    23    9   23 1  
    24   10   24 1  
    25   11   25 1  
@<TRIPOS>SUBSTRUCTURE
     1 H4Q         1

