6i66_ligand
  -I-interpret- 

 25 25  0  0  0  0  0  0  0  0999 V2000
  -16.9820   -0.8310  -26.2630 C   0  0  0  0  0
  -16.5710   -2.2740  -26.0410 C   0  0  0  0  0
  -17.0940   -3.1690  -27.1690 C   0  0  0  0  0
  -16.4750   -2.7200  -28.4970 C   0  0  0  0  0
  -16.6660   -4.4470  -26.8470 C   0  0  0  0  0
  -15.4930   -4.9360  -27.4040 C   0  0  0  0  0
  -15.0420   -6.2000  -27.0690 C   0  0  0  0  0
  -15.7580   -6.9740  -26.1700 C   0  0  0  0  0
  -15.2990   -8.2130  -25.8510 O   0  0  0  0  0
  -16.9340   -6.4880  -25.6010 C   0  0  0  0  0
  -17.3890   -5.2190  -25.9380 C   0  0  0  0  0
  -16.5721   -0.4794  -27.2098 H   0  0  0  0  0
  -18.0696   -0.7643  -26.2894 H   0  0  0  0  0
  -16.5986   -0.2160  -25.4488 H   0  0  0  0  0
  -16.9919   -2.6177  -25.0961 H   0  0  0  0  0
  -15.4826   -2.3305  -26.0238 H   0  0  0  0  0
  -18.1779   -3.1227  -27.2740 H   0  0  0  0  0
  -15.3886   -2.7205  -28.4086 H   0  0  0  0  0
  -16.7768   -3.4069  -29.2877 H   0  0  0  0  0
  -16.8209   -1.7143  -28.7360 H   0  0  0  0  0
  -14.9267   -4.3238  -28.1059 H   0  0  0  0  0
  -14.1242   -6.5868  -27.5118 H   0  0  0  0  0
  -15.8975   -8.6226  -25.2220 H   0  0  0  0  0
  -17.4943   -7.1007  -24.8948 H   0  0  0  0  0
  -18.3053   -4.8294  -25.4946 H   0  0  0  0  0
  1  2  1  0  0  0
  2  3  1  0  0  0
  3  4  1  0  0  0
  3  5  1  0  0  0
  5  6  4  0  0  0
  5 11  4  0  0  0
  6  7  4  0  0  0
  7  8  4  0  0  0
  8  9  1  0  0  0
  8 10  4  0  0  0
 10 11  4  0  0  0
  1 12  1  0  0  0
  1 13  1  0  0  0
  1 14  1  0  0  0
  2 15  1  0  0  0
  2 16  1  0  0  0
  3 17  1  0  0  0
  4 18  1  0  0  0
  4 19  1  0  0  0
  4 20  1  0  0  0
  6 21  1  0  0  0
  7 22  1  0  0  0
  9 23  1  0  0  0
 10 24  1  0  0  0
 11 25  1  0  0  0
M  END
$$$$
