### 
### Created by X-TOOL on Wed Jan  1 15:39:35 2020
### 

@<TRIPOS>MOLECULE
6ce6_ligand
   32    34     1     0     0
SMALL
GAST_HUCK


@<TRIPOS>ATOM
      1 O1         -6.2600    6.3920    7.7460 O.co2     1 EYP        -0.5688
      2 C1         -7.4530    5.2570    6.0070 C.3       1 EYP         0.0181
      3 C2         -6.6490    4.0760    5.5030 C.3       1 EYP         0.0329
      4 C3         -5.4530    3.7270    6.3330 C.2       1 EYP         0.0960
      5 C4         -3.3070    3.4510    6.7930 C.ar      1 EYP         0.0121
      6 C5         -1.9410    3.5270    6.5760 C.ar      1 EYP        -0.0548
      7 C6         -1.0930    2.6520    7.2540 C.ar      1 EYP         0.0121
      8 C7          0.7970    1.6120    7.7180 C.2       1 EYP         0.0960
      9 C8          2.2480    1.2830    7.5940 C.3       1 EYP         0.0329
     10 C9          3.0920    2.0060    8.6110 C.3       1 EYP         0.0181
     11 C10         3.2210    3.4760    8.3260 C.2       1 EYP         0.0378
     12 O2          2.6440    4.2280    9.2230 O.co2     1 EYP        -0.5688
     13 O3          3.8060    3.9160    7.3640 O.co2     1 EYP        -0.5688
     14 N1          0.2700    2.5700    7.0260 N.2       1 EYP        -0.3134
     15 S          -0.2900    0.7030    8.7400 S.3       1 EYP         0.0020
     16 C11        -1.6100    1.7280    8.1720 C.ar      1 EYP         0.0437
     17 C12        -2.9820    1.6910    8.4720 C.ar      1 EYP        -0.0375
     18 C13        -3.8200    2.5510    7.7380 C.ar      1 EYP         0.0437
     19 N          -4.2630    4.1170    6.0200 N.2       1 EYP        -0.3134
     20 S1         -5.5700    2.5640    7.6300 S.3       1 EYP         0.0020
     21 C          -6.6750    6.3980    6.5900 C.2       1 EYP         0.0378
     22 O          -6.5530    7.4160    5.7560 O.co2     1 EYP        -0.5688
     23 H1         -8.1372    4.8875    6.7850 H         1 EYP         0.0464
     24 H2         -8.0369    5.6488    5.1611 H         1 EYP         0.0464
     25 H3         -6.3025    4.3080    4.4851 H         1 EYP         0.0558
     26 H4         -7.3121    3.1988    5.4736 H         1 EYP         0.0558
     27 H5         -1.5356    4.2588    5.8866 H         1 EYP         0.0494
     28 H6          2.5892    1.5658    6.5872 H         1 EYP         0.0558
     29 H7          2.3774    0.1997    7.7342 H         1 EYP         0.0558
     30 H8          4.0973    1.5596    8.6138 H         1 EYP         0.0464
     31 H9          2.6320    1.8799    9.6022 H         1 EYP         0.0464
     32 H10        -3.3774    1.0298    9.2346 H         1 EYP         0.0510
@<TRIPOS>BOND
     1   21    1 ar 
     2    3    2 1  
     3    2   21 1  
     4    4    3 1  
     5   19    4 2  
     6    4   20 1  
     7    6    5 ar 
     8    5   18 ar 
     9    5   19 1  
    10    7    6 ar 
    11   14    7 1  
    12    7   16 ar 
    13    8    9 1  
    14    8   14 2  
    15    8   15 1  
    16    9   10 1  
    17   10   11 1  
    18   11   12 ar 
    19   11   13 ar 
    20   15   16 1  
    21   16   17 ar 
    22   17   18 ar 
    23   18   20 1  
    24   21   22 ar 
    25    2   23 1  
    26    2   24 1  
    27    3   25 1  
    28    3   26 1  
    29    6   27 1  
    30    9   28 1  
    31    9   29 1  
    32   10   30 1  
    33   10   31 1  
    34   17   32 1  
@<TRIPOS>SUBSTRUCTURE
     1 EYP         1

