6ce6_ligand
  -I-interpret- 

 34 36  0  0  0  0  0  0  0  0999 V2000
   -6.2600    6.3920    7.7460 O   0  0  0  0  0
   -7.4530    5.2570    6.0070 C   0  0  0  0  0
   -6.6490    4.0760    5.5030 C   0  0  0  0  0
   -5.4530    3.7270    6.3330 C   0  0  0  0  0
   -3.3070    3.4510    6.7930 C   0  0  0  0  0
   -1.9410    3.5270    6.5760 C   0  0  0  0  0
   -1.0930    2.6520    7.2540 C   0  0  0  0  0
    0.7970    1.6120    7.7180 C   0  0  0  0  0
    2.2480    1.2830    7.5940 C   0  0  0  0  0
    3.0920    2.0060    8.6110 C   0  0  0  0  0
    3.2210    3.4760    8.3260 C   0  0  0  0  0
    2.6440    4.2280    9.2230 O   0  0  0  0  0
    3.8060    3.9160    7.3640 O   0  0  0  0  0
    0.2700    2.5700    7.0260 N   0  0  0  0  0
   -0.2900    0.7030    8.7400 S   0  0  0  0  0
   -1.6100    1.7280    8.1720 C   0  0  0  0  0
   -2.9820    1.6910    8.4720 C   0  0  0  0  0
   -3.8200    2.5510    7.7380 C   0  0  0  0  0
   -4.2630    4.1170    6.0200 N   0  0  0  0  0
   -5.5700    2.5640    7.6300 S   0  0  0  0  0
   -6.6750    6.3980    6.5900 C   0  0  0  0  0
   -6.5530    7.4160    5.7560 O   0  0  0  0  0
   -8.0769    4.8740    6.8146 H   0  0  0  0  0
   -7.9733    5.6600    5.1381 H   0  0  0  0  0
   -6.2787    4.3456    4.5139 H   0  0  0  0  0
   -7.3116    3.2108    5.5252 H   0  0  0  0  0
   -1.5334    4.2628    5.8828 H   0  0  0  0  0
    2.5792    1.5906    6.6021 H   0  0  0  0  0
    2.3655    0.2121    7.7595 H   0  0  0  0  0
    4.0917    1.5725    8.5824 H   0  0  0  0  0
    2.6094    1.8965    9.5822 H   0  0  0  0  0
    2.2423    3.6720    9.8947 H   0  0  0  0  0
   -3.3796    1.0261    9.2388 H   0  0  0  0  0
   -6.9523    7.1875    4.9134 H   0  0  0  0  0
 21  1  2  0  0  0
  3  2  1  0  0  0
  2 21  1  0  0  0
  4  3  1  0  0  0
 19  4  4  0  0  0
  4 20  4  0  0  0
  6  5  4  0  0  0
  5 18  4  0  0  0
  5 19  4  0  0  0
  7  6  4  0  0  0
 14  7  4  0  0  0
  7 16  4  0  0  0
  8  9  1  0  0  0
  8 14  4  0  0  0
  8 15  4  0  0  0
  9 10  1  0  0  0
 10 11  1  0  0  0
 11 12  1  0  0  0
 11 13  2  0  0  0
 15 16  4  0  0  0
 16 17  4  0  0  0
 17 18  4  0  0  0
 18 20  4  0  0  0
 21 22  1  0  0  0
  2 23  1  0  0  0
  2 24  1  0  0  0
  3 25  1  0  0  0
  3 26  1  0  0  0
  6 27  1  0  0  0
  9 28  1  0  0  0
  9 29  1  0  0  0
 10 30  1  0  0  0
 10 31  1  0  0  0
 12 32  1  0  0  0
 17 33  1  0  0  0
 22 34  1  0  0  0
M  END
$$$$
