2fqx_ligand
  -I-interpret- 

 33 35  0  0  0  0  0  0  0  0999 V2000
   31.4040   62.4540   13.3650 O   0  0  0  0  0
   31.1240   61.0890   13.6970 C   0  0  0  0  0
   32.1240   60.1230   13.0500 C   0  0  0  0  0
   32.0410   60.2400   11.6200 O   0  0  0  0  0
   33.5730   60.4900   13.3730 C   0  0  0  0  0
   33.9590   59.9160   14.6270 O   0  0  0  0  0
   34.2890   59.7510   12.2450 C   0  0  0  0  0
   34.2830   58.3390   12.4800 O   0  0  0  0  0
   33.3580   60.0540   11.0680 C   0  0  0  0  0
   33.7210   61.3090   10.3680 N   0  0  0  0  0
   33.3780   62.5540   10.6980 C   0  0  0  0  0
   33.8610   63.3990    9.7900 N   0  0  0  0  0
   34.5170   62.6940    8.8710 C   0  0  0  0  0
   35.1930   63.0090    7.6970 C   0  0  0  0  0
   35.3470   64.1750    7.3280 O   0  0  0  0  0
   35.7360   61.9720    6.9340 N   0  0  0  0  0
   35.6030   60.6420    7.3580 C   0  0  0  0  0
   36.1220   59.6570    6.6330 N   0  0  0  0  0
   34.9520   60.3760    8.4970 N   0  0  0  0  0
   34.4200   61.3580    9.2410 C   0  0  0  0  0
   30.7578   63.0241   13.7881 H   0  0  0  0  0
   30.1278   60.8460   13.3274 H   0  0  0  0  0
   31.1964   60.9799   14.7791 H   0  0  0  0  0
   31.8761   59.1309   13.4274 H   0  0  0  0  0
   33.7717   61.5594   13.4437 H   0  0  0  0  0
   33.5114   60.3773   15.3401 H   0  0  0  0  0
   35.3308   60.0444   12.1157 H   0  0  0  0  0
   34.8639   58.1359   13.2168 H   0  0  0  0  0
   33.4228   59.2347   10.3520 H   0  0  0  0  0
   32.7937   62.8359   11.5739 H   0  0  0  0  0
   36.2301   62.1828    6.0669 H   0  0  0  0  0
   36.0258   58.6901    6.9432 H   0  0  0  0  0
   36.6167   59.8677    5.7662 H   0  0  0  0  0
  1  2  1  0  0  0
  2  3  1  0  0  0
  3  4  1  0  0  0
  3  5  1  0  0  0
  4  9  1  0  0  0
  5  6  1  0  0  0
  5  7  1  0  0  0
  7  8  1  0  0  0
  7  9  1  0  0  0
  9 10  1  0  0  0
 10 11  4  0  0  0
 10 20  4  0  0  0
 11 12  4  0  0  0
 12 13  4  0  0  0
 13 14  1  0  0  0
 13 20  4  0  0  0
 14 15  2  0  0  0
 14 16  1  0  0  0
 16 17  1  0  0  0
 17 18  1  0  0  0
 17 19  2  0  0  0
 19 20  1  0  0  0
  1 21  1  0  0  0
  2 22  1  0  0  0
  2 23  1  0  0  0
  3 24  1  0  0  0
  5 25  1  0  0  0
  6 26  1  0  0  0
  7 27  1  0  0  0
  8 28  1  0  0  0
  9 29  1  0  0  0
 11 30  1  0  0  0
 16 31  1  0  0  0
 18 32  1  0  0  0
 18 33  1  0  0  0
M  END
$$$$
