### 
### Created by X-TOOL on Mon Sep 10 21:12:54 2018
### 

@<TRIPOS>MOLECULE
2fqx_ligand
   33    35     1     0     0
SMALL
GAST_HUCK


@<TRIPOS>ATOM
      1 O5         31.4040   62.4540   13.3650 O.3       1 GMP        -0.3924
      2 C5         31.1240   61.0890   13.6970 C.3       1 GMP         0.0730
      3 C4         32.1240   60.1230   13.0500 C.3       1 GMP         0.1136
      4 O4         32.0410   60.2400   11.6200 O.3       1 GMP        -0.3367
      5 C3         33.5730   60.4900   13.3730 C.3       1 GMP         0.1146
      6 O3         33.9590   59.9160   14.6270 O.3       1 GMP        -0.3864
      7 C2         34.2890   59.7510   12.2450 C.3       1 GMP         0.1386
      8 O2         34.2830   58.3390   12.4800 O.3       1 GMP        -0.3836
      9 C1         33.3580   60.0540   11.0680 C.3       1 GMP         0.1992
     10 N9         33.7210   61.3090   10.3680 N.pl3     1 GMP        -0.2101
     11 C8         33.3780   62.5540   10.6980 C.2       1 GMP         0.0957
     12 N7         33.8610   63.3990    9.7900 N.2       1 GMP        -0.3235
     13 C5         34.5170   62.6940    8.8710 C.2       1 GMP         0.0926
     14 C6         35.1930   63.0090    7.6970 C.2       1 GMP         0.2135
     15 O6         35.3470   64.1750    7.3280 O.2       1 GMP        -0.4091
     16 N1         35.7360   61.9720    6.9340 N.am      1 GMP        -0.1839
     17 C2         35.6030   60.6420    7.3580 C.2       1 GMP         0.2340
     18 N2         36.1220   59.6570    6.6330 N.pl3     1 GMP        -0.2807
     19 N3         34.9520   60.3760    8.4970 N.2       1 GMP        -0.2765
     20 C4         34.4200   61.3580    9.2410 C.2       1 GMP         0.1159
     21 H1         32.2750   62.6805   13.6692 H         1 GMP         0.2095
     22 H2         30.1116   60.8389   13.3470 H         1 GMP         0.0584
     23 H3         31.1736   60.9720   14.7896 H         1 GMP         0.0584
     24 H4         31.9053   59.0955   13.3763 H         1 GMP         0.0647
     25 H5         33.7529   61.5751   13.3618 H         1 GMP         0.0648
     26 H6         33.3926   60.2478   15.3136 H         1 GMP         0.2100
     27 H7         35.3136   60.1182   12.0861 H         1 GMP         0.0676
     28 H8         34.7270   58.1535   13.2991 H         1 GMP         0.2101
     29 H9         33.3706   59.2151   10.3566 H         1 GMP         0.0998
     30 H10        32.7942   62.8357   11.5731 H         1 GMP         0.1179
     31 H11        36.2204   62.1787    6.0839 H         1 GMP         0.2515
     32 H12        36.0236   58.6805    6.9455 H         1 GMP         0.1897
     33 H13        36.6227   59.8699    5.7584 H         1 GMP         0.1897
@<TRIPOS>BOND
     1    1    2 1  
     2    2    3 1  
     3    3    4 1  
     4    3    5 1  
     5    4    9 1  
     6    5    6 1  
     7    5    7 1  
     8    7    8 1  
     9    7    9 1  
    10    9   10 1  
    11   10   11 1  
    12   10   20 1  
    13   11   12 2  
    14   12   13 1  
    15   13   14 1  
    16   13   20 2  
    17   14   15 2  
    18   14   16 am 
    19   16   17 am 
    20   17   18 1  
    21   17   19 2  
    22   19   20 1  
    23    1   21 1  
    24    2   22 1  
    25    2   23 1  
    26    3   24 1  
    27    5   25 1  
    28    6   26 1  
    29    7   27 1  
    30    8   28 1  
    31    9   29 1  
    32   11   30 1  
    33   16   31 1  
    34   18   32 1  
    35   18   33 1  
@<TRIPOS>SUBSTRUCTURE
     1 GMP         1

