### 
### Created by X-TOOL on Mon Sep 10 21:13:04 2018
### 

@<TRIPOS>MOLECULE
3lmk_ligand
   18    17     1     0     0
SMALL
GAST_HUCK


@<TRIPOS>ATOM
      1 N          22.4070   -4.0770   12.0330 N.4       1 GLU         0.2328
      2 CA         21.4770   -4.6740   11.0390 C.3       1 GLU         0.0298
      3 C          21.3090   -3.7360    9.8390 C.2       1 GLU         0.0845
      4 O          21.9280   -2.6690    9.8030 O.co2     1 GLU        -0.5643
      5 CB         20.1440   -4.9940   11.7070 C.3       1 GLU         0.0139
      6 CG         20.2980   -5.9990   12.8280 C.3       1 GLU         0.0069
      7 CD         19.1760   -5.9510   13.8260 C.2       1 GLU         0.0351
      8 OE1        18.4890   -6.9770   13.9840 O.co2     1 GLU        -0.5690
      9 OE2        18.9800   -4.8930   14.4500 O.co2     1 GLU        -0.5690
     10 OXT        20.5890   -4.0140    8.8710 O.co2     1 GLU        -0.5643
     11 H1         22.5087   -4.7032   12.8163 H         1 GLU         0.2010
     12 H2         22.0364   -3.1960   12.3531 H         1 GLU         0.2010
     13 H3         23.3066   -3.9271   11.6037 H         1 GLU         0.2010
     14 H4         21.9127   -5.6165   10.6759 H         1 GLU         0.1025
     15 H5         19.4585   -5.4065   10.9521 H         1 GLU         0.0356
     16 H6         19.7210   -4.0656   12.1182 H         1 GLU         0.0356
     17 H7         21.2422   -5.7939   13.3538 H         1 GLU         0.0433
     18 H8         20.3334   -7.0076   12.3905 H         1 GLU         0.0433
@<TRIPOS>BOND
     1    1    2 1  
     2    2    3 1  
     3    2    5 1  
     4    3    4 ar 
     5    3   10 ar 
     6    5    6 1  
     7    6    7 1  
     8    7    8 ar 
     9    7    9 ar 
    10    1   11 1  
    11    1   12 1  
    12    1   13 1  
    13    2   14 1  
    14    5   15 1  
    15    5   16 1  
    16    6   17 1  
    17    6   18 1  
@<TRIPOS>SUBSTRUCTURE
     1 GLU         1

