3lmk_ligand
  -I-interpret- 

 20 19  0  0  0  0  0  0  0  0999 V2000
   22.4070   -4.0770   12.0330 N   0  3  0  0  0
   21.4770   -4.6740   11.0390 C   0  0  0  0  0
   21.3090   -3.7360    9.8390 C   0  0  0  0  0
   21.9280   -2.6690    9.8030 O   0  0  0  0  0
   20.1440   -4.9940   11.7070 C   0  0  0  0  0
   20.2980   -5.9990   12.8280 C   0  0  0  0  0
   19.1760   -5.9510   13.8260 C   0  0  0  0  0
   18.4890   -6.9770   13.9840 O   0  0  0  0  0
   18.9800   -4.8930   14.4500 O   0  0  0  0  0
   20.5890   -4.0140    8.8710 O   0  0  0  0  0
   23.2963   -3.8653   11.5805 H   0  0  0  0  0
   22.0003   -3.2185   12.4045 H   0  0  0  0  0
   22.5604   -4.7390   12.7937 H   0  0  0  0  0
   21.8932   -5.6085   10.6628 H   0  0  0  0  0
   19.4801   -5.4211   10.9554 H   0  0  0  0  0
   19.7442   -4.0718   12.1287 H   0  0  0  0  0
   21.2210   -5.7633   13.3578 H   0  0  0  0  0
   20.3000   -6.9934   12.3815 H   0  0  0  0  0
   18.8134   -7.6703   13.4046 H   0  0  0  0  0
   20.1662   -4.8627    9.0214 H   0  0  0  0  0
  1  2  1  0  0  0
  2  3  1  0  0  0
  2  5  1  0  0  0
  3  4  2  0  0  0
  3 10  1  0  0  0
  5  6  1  0  0  0
  6  7  1  0  0  0
  7  8  1  0  0  0
  7  9  2  0  0  0
  1 11  1  0  0  0
  1 12  1  0  0  0
  1 13  1  0  0  0
  2 14  1  0  0  0
  5 15  1  0  0  0
  5 16  1  0  0  0
  6 17  1  0  0  0
  6 18  1  0  0  0
  8 19  1  0  0  0
 10 20  1  0  0  0
M  END
$$$$
