4daf_ligand
  -I-interpret- 

 27 28  0  0  0  0  0  0  0  0999 V2000
  -14.5690   27.7820    3.8590 O   0  0  0  0  0
  -14.7450   26.3930    4.0550 C   0  0  0  0  0
  -15.4440   25.6880    3.1510 N   0  0  0  0  0
  -15.6050   24.3670    3.2500 C   0  0  0  0  0
  -16.3480   23.6490    2.2580 N   0  0  0  0  0
  -15.0880   23.7030    4.2910 N   0  0  0  0  0
  -14.3810   24.3350    5.2430 C   0  0  0  0  0
  -14.1870   25.7100    5.1490 C   0  0  0  0  0
  -13.4260   26.3190    6.2000 C   0  0  0  0  0
  -13.2020   27.6970    6.2380 O   0  0  0  0  0
  -13.8790   23.6340    6.2350 N   0  0  0  0  0
  -13.1740   24.1900    7.2060 N   0  0  0  0  0
  -12.9330   25.4980    7.2220 C   0  0  0  0  0
  -12.1280   26.1040    8.3850 C   0  0  0  0  0
  -10.8450   26.7170    7.8530 C   0  0  0  0  0
  -12.7820   27.1840    9.1790 C   0  0  0  0  0
  -13.8790   26.9720    9.7510 O   0  0  0  0  0
  -12.3420   28.3310    9.1300 O   0  0  0  0  0
  -15.8659   26.1784    2.3624 H   0  0  0  0  0
  -16.4789   22.6415    2.3488 H   0  0  0  0  0
  -16.7462   24.1452    1.4607 H   0  0  0  0  0
  -12.6757   27.9133    7.0112 H   0  0  0  0  0
  -11.9927   25.2519    9.0511 H   0  0  0  0  0
  -10.2505   25.9452    7.3642 H   0  0  0  0  0
  -11.0885   27.4995    7.1343 H   0  0  0  0  0
  -10.2782   27.1449    8.6799 H   0  0  0  0  0
  -14.0860   26.0356    9.7067 H   0  0  0  0  0
  1  2  2  0  0  0
  2  3  1  0  0  0
  2  8  1  0  0  0
  3  4  1  0  0  0
  4  5  1  0  0  0
  4  6  2  0  0  0
  6  7  1  0  0  0
  7  8  4  0  0  0
  7 11  4  0  0  0
  8  9  4  0  0  0
  9 10  1  0  0  0
  9 13  4  0  0  0
 11 12  4  0  0  0
 12 13  4  0  0  0
 13 14  1  0  0  0
 14 15  1  0  0  0
 14 16  1  0  0  0
 16 17  1  0  0  0
 16 18  2  0  0  0
  3 19  1  0  0  0
  5 20  1  0  0  0
  5 21  1  0  0  0
 10 22  1  0  0  0
 14 23  1  0  0  0
 15 24  1  0  0  0
 15 25  1  0  0  0
 15 26  1  0  0  0
 17 27  1  0  0  0
M  END
$$$$
