5ewy_ligand
  -I-interpret- 

 35 37  0  0  0  0  0  0  0  0999 V2000
   21.8790   32.5160   22.2180 N   0  0  0  0  0
   22.3240   31.2600   22.2510 C   0  0  0  0  0
   20.4720   32.8260   22.6280 C   0  0  0  0  0
   18.8160   31.8560   20.9590 C   0  0  0  0  0
   27.2110   35.0550   20.5190 C   0  0  0  0  0
   26.8170   36.3860   20.5260 C   0  0  0  0  0
   25.5190   36.7460   20.8720 C   0  0  0  0  0
   24.5970   35.7590   21.1940 C   0  0  0  0  0
   24.9750   34.4020   21.2160 C   0  0  0  0  0
   26.2910   34.0620   20.8570 C   0  0  0  0  0
   26.7030   32.6640   20.8880 C   0  0  0  0  0
   24.0400   33.3550   21.5530 C   0  0  0  0  0
   24.5260   32.0170   21.5410 C   0  0  0  0  0
   25.8020   31.7130   21.1980 N   0  0  0  0  0
   22.7020   33.5490   21.9240 C   0  0  0  0  0
   23.5940   30.9570   21.8820 C   0  0  0  0  0
   19.4260   31.7570   22.3430 C   0  0  0  0  0
   19.6560   31.1230   19.9330 C   0  0  0  0  0
   27.8800   32.3360   20.5840 O   0  0  0  0  0
   27.7060   37.3290   20.2110 F   0  0  0  0  0
   19.0860   30.3760   19.0950 O   0  0  0  0  0
   20.8920   31.2650   19.9360 O   0  0  0  0  0
   21.6567   30.4633   22.5798 H   0  0  0  0  0
   20.1752   33.6992   22.0470 H   0  0  0  0  0
   20.4938   32.9437   23.7114 H   0  0  0  0  0
   18.7640   32.9077   20.6773 H   0  0  0  0  0
   17.8250   31.4028   20.9835 H   0  0  0  0  0
   28.2330   34.7872   20.2510 H   0  0  0  0  0
   25.2274   37.7961   20.8903 H   0  0  0  0  0
   23.5703   36.0369   21.4322 H   0  0  0  0  0
   22.3119   34.5654   21.9774 H   0  0  0  0  0
   23.9152   29.9162   21.8415 H   0  0  0  0  0
   18.6200   31.8887   23.0649 H   0  0  0  0  0
   19.9218   30.7888   22.4124 H   0  0  0  0  0
   18.1381   30.3922   19.2462 H   0  0  0  0  0
  1  2  1  0  0  0
  1  3  1  0  0  0
 15  1  1  0  0  0
  2 16  2  0  0  0
  3 17  1  0  0  0
 17  4  1  0  0  0
  4 18  1  0  0  0
  5  6  4  0  0  0
 10  5  4  0  0  0
  7  6  4  0  0  0
  6 20  1  0  0  0
  8  7  4  0  0  0
  9  8  4  0  0  0
  9 10  4  0  0  0
 12  9  1  0  0  0
 10 11  1  0  0  0
 11 14  1  0  0  0
 11 19  2  0  0  0
 12 13  1  0  0  0
 12 15  2  0  0  0
 13 14  2  0  0  0
 13 16  1  0  0  0
 18 21  1  0  0  0
 18 22  2  0  0  0
  2 23  1  0  0  0
  3 24  1  0  0  0
  3 25  1  0  0  0
  4 26  1  0  0  0
  4 27  1  0  0  0
  5 28  1  0  0  0
  7 29  1  0  0  0
  8 30  1  0  0  0
 15 31  1  0  0  0
 16 32  1  0  0  0
 17 33  1  0  0  0
 17 34  1  0  0  0
 21 35  1  0  0  0
M  END
$$$$
