### 
### Created by X-TOOL on Mon Sep 10 21:13:26 2018
### 

@<TRIPOS>MOLECULE
5ewy_ligand
   34    36     1     0     0
SMALL
GAST_HUCK


@<TRIPOS>ATOM
      1 N12        21.8790   32.5160   22.2180 N.pl3     1 5TQ        -0.2114
      2 C13        22.3240   31.2600   22.2510 C.2       1 5TQ         0.0838
      3 C15        20.4720   32.8260   22.6280 C.3       1 5TQ         0.0746
      4 C17        18.8160   31.8560   20.9590 C.3       1 5TQ         0.0030
      5 C01        27.2110   35.0550   20.5190 C.ar      1 5TQ        -0.0156
      6 C02        26.8170   36.3860   20.5260 C.ar      1 5TQ         0.1331
      7 C03        25.5190   36.7460   20.8720 C.ar      1 5TQ        -0.0280
      8 C04        24.5970   35.7590   21.1940 C.ar      1 5TQ        -0.0563
      9 C05        24.9750   34.4020   21.2160 C.ar      1 5TQ        -0.0077
     10 C06        26.2910   34.0620   20.8570 C.ar      1 5TQ         0.0260
     11 C07        26.7030   32.6640   20.8880 C.2       1 5TQ         0.1284
     12 C08        24.0400   33.3550   21.5530 C.2       1 5TQ         0.0450
     13 C09        24.5260   32.0170   21.5410 C.2       1 5TQ         0.0046
     14 N10        25.8020   31.7130   21.1980 N.2       1 5TQ        -0.3500
     15 C11        22.7020   33.5490   21.9240 C.2       1 5TQ         0.1000
     16 C14        23.5940   30.9570   21.8820 C.2       1 5TQ        -0.0062
     17 C16        19.4260   31.7570   22.3430 C.3       1 5TQ        -0.0106
     18 C18        19.6560   31.1230   19.9330 C.2       1 5TQ         0.0349
     19 O19        27.8800   32.3360   20.5840 O.2       1 5TQ        -0.4166
     20 F20        27.7060   37.3290   20.2110 F         1 5TQ        -0.1855
     21 O21        19.0860   30.3760   19.0950 O.co2     1 5TQ        -0.5690
     22 O22        20.8920   31.2650   19.9360 O.co2     1 5TQ        -0.5690
     23 H1         21.6573   30.4640   22.5795 H         1 5TQ         0.1321
     24 H2         20.1652   33.7415   22.1011 H         1 5TQ         0.0654
     25 H3         20.4736   33.0101   23.7125 H         1 5TQ         0.0654
     26 H4         18.7459   32.9159   20.6733 H         1 5TQ         0.0431
     27 H5         17.8088   31.4142   20.9790 H         1 5TQ         0.0431
     28 H6         28.2274   34.7887   20.2525 H         1 5TQ         0.0638
     29 H7         25.2290   37.7903   20.8902 H         1 5TQ         0.0627
     30 H8         23.5759   36.0354   21.4309 H         1 5TQ         0.0587
     31 H9         22.3122   34.5645   21.9773 H         1 5TQ         0.1425
     32 H10        23.9149   29.9171   21.8415 H         1 5TQ         0.0530
     33 H11        18.6201   31.8528   23.0855 H         1 5TQ         0.0312
     34 H12        19.9015   30.7702   22.4432 H         1 5TQ         0.0312
@<TRIPOS>BOND
     1    1    2 1  
     2    1    3 1  
     3   15    1 1  
     4    2   16 2  
     5    3   17 1  
     6   17    4 1  
     7    4   18 1  
     8    5    6 ar 
     9   10    5 ar 
    10    7    6 ar 
    11    6   20 1  
    12    8    7 ar 
    13    9    8 ar 
    14    9   10 ar 
    15   12    9 1  
    16   10   11 1  
    17   11   14 1  
    18   11   19 2  
    19   12   13 1  
    20   12   15 2  
    21   13   14 2  
    22   13   16 1  
    23   18   21 ar 
    24   18   22 ar 
    25    2   23 1  
    26    3   24 1  
    27    3   25 1  
    28    4   26 1  
    29    4   27 1  
    30    5   28 1  
    31    7   29 1  
    32    8   30 1  
    33   15   31 1  
    34   16   32 1  
    35   17   33 1  
    36   17   34 1  
@<TRIPOS>SUBSTRUCTURE
     1 5TQ         1

