3d6p_ligand
  -I-interpret- 

 42 44  0  0  0  0  0  0  0  0999 V2000
   34.9410   -4.6300   12.3850 C   0  0  0  0  0
   36.1190   -4.5230   13.1230 C   0  0  0  0  0
   36.9100   -3.3820   12.9620 C   0  0  0  0  0
   36.5330   -2.3310   12.0820 N   0  0  0  0  0
   34.5900   -3.6110   11.4940 N   0  0  0  0  0
   43.6700   -1.8000   14.8010 O   0  0  0  0  0
   42.7800   -2.8880   15.1260 C   0  0  0  0  0
   41.3900   -2.3100   15.4410 C   0  0  0  0  0
   43.2450   -1.1110   13.6040 C   0  0  0  0  0
   41.9000   -0.4480   13.9180 C   0  0  0  0  0
   40.9170   -1.4680   14.3280 N   0  3  0  0  0
   39.7520   -0.7290   14.8120 C   0  0  0  0  0
   38.5570   -0.8350   13.8490 C   0  0  0  0  0
   38.7090   -1.3550   12.4770 O   0  0  0  0  0
   38.0160    0.5360   13.5340 C   0  0  0  0  0
   37.5120    1.2540   14.6550 O   0  0  0  0  0
   36.8650    0.1550   12.6340 C   0  0  0  0  0
   36.7880    1.2580   11.7530 O   0  0  0  0  0
   37.3900   -1.1080   11.9060 C   0  0  0  0  0
   34.2210   -5.6210   12.4750 O   0  0  0  0  0
   35.3630   -2.4620   11.3340 C   0  0  0  0  0
   34.9780   -1.5790   10.5680 O   0  0  0  0  0
   36.4172   -5.3134   13.8118 H   0  0  0  0  0
   37.8392   -3.2958   13.5253 H   0  0  0  0  0
   33.7384   -3.7120   10.9417 H   0  0  0  0  0
   43.1599   -3.4316   15.9910 H   0  0  0  0  0
   42.7128   -3.5760   14.2833 H   0  0  0  0  0
   41.4557   -1.7011   16.3427 H   0  0  0  0  0
   40.6891   -3.1321   15.5859 H   0  0  0  0  0
   43.1445   -1.8097   12.7735 H   0  0  0  0  0
   43.9819   -0.3642   13.3082 H   0  0  0  0  0
   41.5356    0.0626   13.0266 H   0  0  0  0  0
   42.0340    0.2670   14.7298 H   0  0  0  0  0
   40.7299   -2.0818   13.5351 H   0  0  0  0  0
   40.0278    0.3221   14.8966 H   0  0  0  0  0
   39.4544   -1.1541   15.7706 H   0  0  0  0  0
   37.9672   -1.5439   14.4301 H   0  0  0  0  0
   38.7804    1.1996   13.1298 H   0  0  0  0  0
   37.1897    2.1109   14.3661 H   0  0  0  0  0
   35.8972   -0.0460   13.0935 H   0  0  0  0  0
   36.0746    1.1164   11.1264 H   0  0  0  0  0
   37.3947   -0.9240   10.8317 H   0  0  0  0  0
  2  1  1  0  0  0
  5  1  1  0  0  0
  1 20  2  0  0  0
  3  2  2  0  0  0
  4  3  1  0  0  0
 19  4  1  0  0  0
  4 21  1  0  0  0
 21  5  1  0  0  0
  7  6  1  0  0  0
  9  6  1  0  0  0
  8  7  1  0  0  0
 11  8  1  0  0  0
 10  9  1  0  0  0
 11 10  1  0  0  0
 12 11  1  0  0  0
 13 12  1  0  0  0
 14 13  1  0  0  0
 13 15  1  0  0  0
 14 19  1  0  0  0
 15 16  1  0  0  0
 15 17  1  0  0  0
 17 18  1  0  0  0
 17 19  1  0  0  0
 21 22  2  0  0  0
  2 23  1  0  0  0
  3 24  1  0  0  0
  5 25  1  0  0  0
  7 26  1  0  0  0
  7 27  1  0  0  0
  8 28  1  0  0  0
  8 29  1  0  0  0
  9 30  1  0  0  0
  9 31  1  0  0  0
 10 32  1  0  0  0
 10 33  1  0  0  0
 11 34  1  0  0  0
 12 35  1  0  0  0
 12 36  1  0  0  0
 13 37  1  0  0  0
 15 38  1  0  0  0
 16 39  1  0  0  0
 17 40  1  0  0  0
 18 41  1  0  0  0
 19 42  1  0  0  0
M  END
$$$$
