### 
### Created by X-TOOL on Mon Sep 10 21:13:00 2018
### 

@<TRIPOS>MOLECULE
3d6p_ligand
   42    44     1     0     0
SMALL
GAST_HUCK


@<TRIPOS>ATOM
      1 C4         34.9410   -4.6300   12.3850 C.2       1 U2S         0.1822
      2 C5         36.1190   -4.5230   13.1230 C.2       1 U2S         0.0062
      3 C6         36.9100   -3.3820   12.9620 C.2       1 U2S         0.0591
      4 N1         36.5330   -2.3310   12.0820 N.am      1 U2S        -0.1592
      5 N3         34.5900   -3.6110   11.4940 N.am      1 U2S        -0.1865
      6 OAM        43.6700   -1.8000   14.8010 O.3       1 U2S        -0.3693
      7 CAK        42.7800   -2.8880   15.1260 C.3       1 U2S         0.0878
      8 CAM        41.3900   -2.3100   15.4410 C.3       1 U2S        -0.0077
      9 CAJ        43.2450   -1.1110   13.6040 C.3       1 U2S         0.0878
     10 CAL        41.9000   -0.4480   13.9180 C.3       1 U2S        -0.0077
     11 NBA        40.9170   -1.4680   14.3280 N.4       1 U2S         0.2404
     12 C5'        39.7520   -0.7290   14.8120 C.3       1 U2S        -0.0022
     13 C4'        38.5570   -0.8350   13.8490 C.3       1 U2S         0.1300
     14 O4'        38.7090   -1.3550   12.4770 O.3       1 U2S        -0.3336
     15 C3'        38.0160    0.5360   13.5340 C.3       1 U2S         0.1174
     16 O3'        37.5120    1.2540   14.6550 O.3       1 U2S        -0.3863
     17 C2'        36.8650    0.1550   12.6340 C.3       1 U2S         0.1388
     18 O2'        36.7880    1.2580   11.7530 O.3       1 U2S        -0.3836
     19 C1'        37.3900   -1.1080   11.9060 C.3       1 U2S         0.2060
     20 O4         34.2210   -5.6210   12.4750 O.2       1 U2S        -0.4124
     21 C2         35.3630   -2.4620   11.3340 C.2       1 U2S         0.3328
     22 O2         34.9780   -1.5790   10.5680 O.2       1 U2S        -0.3815
     23 H1         36.4169   -5.3127   13.8112 H         1 U2S         0.0258
     24 H2         37.8384   -3.2959   13.5247 H         1 U2S         0.1178
     25 H3         33.7551   -3.7100   10.9526 H         1 U2S         0.2259
     26 H4         43.1629   -3.4302   16.0031 H         1 U2S         0.0613
     27 H5         42.7095   -3.5767   14.2712 H         1 U2S         0.0613
     28 H6         41.4497   -1.7014   16.3553 H         1 U2S         0.0837
     29 H7         40.6809   -3.1365   15.5963 H         1 U2S         0.0837
     30 H8         43.1284   -1.8276   12.7776 H         1 U2S         0.0613
     31 H9         43.9859   -0.3472   13.3253 H         1 U2S         0.0613
     32 H10        41.5323    0.0721   13.0212 H         1 U2S         0.0837
     33 H11        42.0335    0.2776   14.7339 H         1 U2S         0.0837
     34 H12        40.6769   -2.0497   13.5406 H         1 U2S         0.2036
     35 H13        40.0252    0.3308   14.9225 H         1 U2S         0.0841
     36 H14        39.4559   -1.1353   15.7904 H         1 U2S         0.0841
     37 H15        37.7991   -1.4425   14.3652 H         1 U2S         0.0678
     38 H16        38.7677    1.1498   13.0161 H         1 U2S         0.0649
     39 H17        38.2071    1.3740   15.2914 H         1 U2S         0.2100
     40 H18        35.9186   -0.0289   13.1637 H         1 U2S         0.0676
     41 H19        36.6206    2.0491   12.2517 H         1 U2S         0.2101
     42 H20        37.4746   -0.8960   10.8300 H         1 U2S         0.0997
@<TRIPOS>BOND
     1    2    1 1  
     2    5    1 am 
     3    1   20 2  
     4    3    2 2  
     5    4    3 1  
     6   19    4 1  
     7    4   21 am 
     8   21    5 am 
     9    7    6 1  
    10    9    6 1  
    11    8    7 1  
    12   11    8 1  
    13   10    9 1  
    14   11   10 1  
    15   12   11 1  
    16   13   12 1  
    17   14   13 1  
    18   13   15 1  
    19   14   19 1  
    20   15   16 1  
    21   15   17 1  
    22   17   18 1  
    23   17   19 1  
    24   21   22 2  
    25    2   23 1  
    26    3   24 1  
    27    5   25 1  
    28    7   26 1  
    29    7   27 1  
    30    8   28 1  
    31    8   29 1  
    32    9   30 1  
    33    9   31 1  
    34   10   32 1  
    35   10   33 1  
    36   11   34 1  
    37   12   35 1  
    38   12   36 1  
    39   13   37 1  
    40   15   38 1  
    41   16   39 1  
    42   17   40 1  
    43   18   41 1  
    44   19   42 1  
@<TRIPOS>SUBSTRUCTURE
     1 U2S         1

