### 
### Created by X-TOOL on Mon Sep 10 21:13:18 2018
### 

@<TRIPOS>MOLECULE
4ocq_ligand
   30    30     1     0     0
SMALL
GAST_HUCK


@<TRIPOS>ATOM
      1 O          86.4850   83.7740  118.6790 O.3       1 A2G        -0.3410
      2 C1         86.8710   83.6770  117.2860 C.3       1 A2G         0.1823
      3 O1         86.0150   84.5210  116.4670 O.3       1 A2G        -0.3651
      4 C2         86.8080   82.2060  116.8210 C.3       1 A2G         0.1208
      5 N2         87.1010   82.0950  115.3810 N.am      1 A2G        -0.2766
      6 C3         85.4410   81.5620  117.1720 C.3       1 A2G         0.1110
      7 O3         85.4300   80.1800  116.7650 O.3       1 A2G        -0.3867
      8 C4         85.2160   81.6680  118.6700 C.3       1 A2G         0.1116
      9 O4         86.2810   80.9650  119.3700 O.3       1 A2G        -0.3865
     10 C5         85.2090   83.1750  119.0020 C.3       1 A2G         0.1130
     11 C6         84.9400   83.4410  120.4730 C.3       1 A2G         0.0730
     12 O6         84.7460   84.8530  120.6420 O.3       1 A2G        -0.3924
     13 C7         88.0970   81.3150  114.9320 C.2       1 A2G         0.1733
     14 O7         88.8120   80.6190  115.6590 O.2       1 A2G        -0.3974
     15 C8         88.3000   81.3290  113.4140 C.3       1 A2G         0.0257
     16 H          87.9077   84.0303  117.1835 H         1 A2G         0.0932
     17 H          86.0975   85.4239  116.7508 H         1 A2G         0.2126
     18 H          87.5867   81.6502  117.3639 H         1 A2G         0.0633
     19 H          86.5477   82.6101  114.7264 H         1 A2G         0.1857
     20 H          84.6388   82.0992  116.6448 H         1 A2G         0.0645
     21 H          84.5901   79.7934  116.9834 H         1 A2G         0.2100
     22 H          84.2482   81.2220  118.9428 H         1 A2G         0.0647
     23 H          86.2781   80.0507  119.1122 H         1 A2G         0.2100
     24 H          84.4213   83.6560  118.4036 H         1 A2G         0.0647
     25 H          85.7980   83.1078  121.0753 H         1 A2G         0.0584
     26 H          84.0366   82.8998  120.7908 H         1 A2G         0.0584
     27 H          84.5759   85.0408  121.5576 H         1 A2G         0.2095
     28 H          89.1340   80.6623  113.1495 H         1 A2G         0.0467
     29 H          88.5303   82.3528  113.0843 H         1 A2G         0.0467
     30 H          87.3816   80.9818  112.9180 H         1 A2G         0.0467
@<TRIPOS>BOND
     1    1    2 1  
     2    1   10 1  
     3    2    3 1  
     4    2    4 1  
     5    4    5 1  
     6    4    6 1  
     7    5   13 am 
     8    6    7 1  
     9    6    8 1  
    10    8    9 1  
    11    8   10 1  
    12   10   11 1  
    13   11   12 1  
    14   13   14 2  
    15   13   15 1  
    16    2   16 1  
    17    3   17 1  
    18    4   18 1  
    19    5   19 1  
    20    6   20 1  
    21    7   21 1  
    22    8   22 1  
    23    9   23 1  
    24   10   24 1  
    25   11   25 1  
    26   11   26 1  
    27   12   27 1  
    28   15   28 1  
    29   15   29 1  
    30   15   30 1  
@<TRIPOS>SUBSTRUCTURE
     1 A2G         1

