4ocq_ligand
  -I-interpret- 

 30 30  0  0  0  0  0  0  0  0999 V2000
   86.4850   83.7740  118.6790 O   0  0  0  0  0
   86.8710   83.6770  117.2860 C   0  0  0  0  0
   86.0150   84.5210  116.4670 O   0  0  0  0  0
   86.8080   82.2060  116.8210 C   0  0  0  0  0
   87.1010   82.0950  115.3810 N   0  0  0  0  0
   85.4410   81.5620  117.1720 C   0  0  0  0  0
   85.4300   80.1800  116.7650 O   0  0  0  0  0
   85.2160   81.6680  118.6700 C   0  0  0  0  0
   86.2810   80.9650  119.3700 O   0  0  0  0  0
   85.2090   83.1750  119.0020 C   0  0  0  0  0
   84.9400   83.4410  120.4730 C   0  0  0  0  0
   84.7460   84.8530  120.6420 O   0  0  0  0  0
   88.0970   81.3150  114.9320 C   0  0  0  0  0
   88.8120   80.6190  115.6590 O   0  0  0  0  0
   88.3000   81.3290  113.4140 C   0  0  0  0  0
   87.8972   84.0270  117.1745 H   0  0  0  0  0
   86.0720   85.4282  116.7759 H   0  0  0  0  0
   87.5767   81.6521  117.3599 H   0  0  0  0  0
   86.5367   82.6205  114.7133 H   0  0  0  0  0
   84.6421   82.0844  116.6458 H   0  0  0  0  0
   85.5730   80.1255  115.8173 H   0  0  0  0  0
   84.2759   81.2129  118.9819 H   0  0  0  0  0
   86.2536   80.0335  119.1393 H   0  0  0  0  0
   84.4087   83.6116  118.4045 H   0  0  0  0  0
   85.7823   83.1024  121.0764 H   0  0  0  0  0
   84.0520   82.8981  120.7969 H   0  0  0  0  0
   84.5742   85.0428  121.5672 H   0  0  0  0  0
   89.3088   81.6736  113.1868 H   0  0  0  0  0
   88.1616   80.3218  113.0209 H   0  0  0  0  0
   87.5736   82.0015  112.9578 H   0  0  0  0  0
  1  2  1  0  0  0
  1 10  1  0  0  0
  2  3  1  0  0  0
  2  4  1  0  0  0
  4  5  1  0  0  0
  4  6  1  0  0  0
  5 13  1  0  0  0
  6  7  1  0  0  0
  6  8  1  0  0  0
  8  9  1  0  0  0
  8 10  1  0  0  0
 10 11  1  0  0  0
 11 12  1  0  0  0
 13 14  2  0  0  0
 13 15  1  0  0  0
  2 16  1  0  0  0
  3 17  1  0  0  0
  4 18  1  0  0  0
  5 19  1  0  0  0
  6 20  1  0  0  0
  7 21  1  0  0  0
  8 22  1  0  0  0
  9 23  1  0  0  0
 10 24  1  0  0  0
 11 25  1  0  0  0
 11 26  1  0  0  0
 12 27  1  0  0  0
 15 28  1  0  0  0
 15 29  1  0  0  0
 15 30  1  0  0  0
M  END
$$$$
