### 
### Created by X-TOOL on Mon Sep 10 21:13:28 2018
### 

@<TRIPOS>MOLECULE
5eq1_ligand
   20    22     1     0     0
SMALL
GAST_HUCK


@<TRIPOS>ATOM
      1 C1          8.4860  -11.2710    6.1260 C.ar      1 BEA        -0.0145
      2 C2          9.6840  -11.9950    6.1160 C.3       1 BEA        -0.0320
      3 C3          8.1890  -10.5370    7.2710 C.ar      1 BEA        -0.0705
      4 C4          7.0130   -9.8060    7.3230 C.ar      1 BEA        -0.0805
      5 C5          6.1790   -9.8480    6.2160 C.ar      1 BEA        -0.0570
      6 C6          6.5060  -10.5620    5.1390 C.ar      1 BEA         0.0695
      7 C7          6.7960  -11.7720    3.0130 C.2       1 BEA         0.2245
      8 C8          7.6530  -11.2840    5.0690 C.ar      1 BEA         0.1236
      9 C9          8.6410  -12.7560    3.2460 C.2       1 BEA         0.1266
     10 N1          7.7980  -11.9420    3.8880 N.pl3     1 BEA        -0.1682
     11 N2          8.1270  -13.0330    2.0550 N.2       1 BEA        -0.2699
     12 N3          7.0720  -12.4740    1.9200 N.2       1 BEA        -0.2598
     13 S           5.6810  -10.7690    3.6940 S.3       1 BEA         0.0187
     14 H1         10.2097  -11.8471    7.0709 H         1 BEA         0.0378
     15 H2         10.3186  -11.6424    5.2896 H         1 BEA         0.0378
     16 H3          9.4651  -13.0643    5.9798 H         1 BEA         0.0378
     17 H4          8.8710  -10.5373    8.1136 H         1 BEA         0.0484
     18 H5          6.7540   -9.2217    8.1985 H         1 BEA         0.0525
     19 H6          5.2482   -9.2925    6.2266 H         1 BEA         0.0497
     20 H7          9.5879  -13.1283    3.6341 H         1 BEA         0.1255
@<TRIPOS>BOND
     1    1    2 1  
     2    1    3 ar 
     3    8    1 ar 
     4    4    3 ar 
     5    5    4 ar 
     6    6    5 ar 
     7    6    8 ar 
     8   13    6 1  
     9    7   10 1  
    10    7   12 2  
    11    7   13 1  
    12    8   10 1  
    13   10    9 1  
    14    9   11 2  
    15   11   12 1  
    16    2   14 1  
    17    2   15 1  
    18    2   16 1  
    19    3   17 1  
    20    4   18 1  
    21    5   19 1  
    22    9   20 1  
@<TRIPOS>SUBSTRUCTURE
     1 BEA         1

