5eq1_ligand
  -I-interpret- 

 20 22  0  0  0  0  0  0  0  0999 V2000
    8.4860  -11.2710    6.1260 C   0  0  0  0  0
    9.6840  -11.9950    6.1160 C   0  0  0  0  0
    8.1890  -10.5370    7.2710 C   0  0  0  0  0
    7.0130   -9.8060    7.3230 C   0  0  0  0  0
    6.1790   -9.8480    6.2160 C   0  0  0  0  0
    6.5060  -10.5620    5.1390 C   0  0  0  0  0
    6.7960  -11.7720    3.0130 C   0  0  0  0  0
    7.6530  -11.2840    5.0690 C   0  0  0  0  0
    8.6410  -12.7560    3.2460 C   0  0  0  0  0
    7.7980  -11.9420    3.8880 N   0  0  0  0  0
    8.1270  -13.0330    2.0550 N   0  0  0  0  0
    7.0720  -12.4740    1.9200 N   0  0  0  0  0
    5.6810  -10.7690    3.6940 S   0  0  0  0  0
   10.5220  -11.3102    6.2459 H   0  0  0  0  0
    9.6758  -12.7198    6.9301 H   0  0  0  0  0
    9.7838  -12.5168    5.1642 H   0  0  0  0  0
    8.8748  -10.5373    8.1182 H   0  0  0  0  0
    6.7526   -9.2185    8.2034 H   0  0  0  0  0
    5.2431   -9.2894    6.2267 H   0  0  0  0  0
    9.5888  -13.1286    3.6345 H   0  0  0  0  0
  1  2  1  0  0  0
  1  3  4  0  0  0
  8  1  4  0  0  0
  4  3  4  0  0  0
  5  4  4  0  0  0
  6  5  4  0  0  0
  6  8  4  0  0  0
 13  6  4  0  0  0
  7 10  4  0  0  0
  7 12  4  0  0  0
  7 13  4  0  0  0
  8 10  4  0  0  0
 10  9  4  0  0  0
  9 11  4  0  0  0
 11 12  4  0  0  0
  2 14  1  0  0  0
  2 15  1  0  0  0
  2 16  1  0  0  0
  3 17  1  0  0  0
  4 18  1  0  0  0
  5 19  1  0  0  0
  9 20  1  0  0  0
M  END
$$$$
