### 
### Created by X-TOOL on Mon Sep 10 21:13:24 2018
### 

@<TRIPOS>MOLECULE
4x6m_ligand
   65    69     1     0     0
SMALL
GAST_HUCK


@<TRIPOS>ATOM
      1 C13        45.3510  -22.3060   32.1490 C.ar      1 3Y3        -0.0654
      2 C16        46.7930  -20.8880   30.8400 C.ar      1 3Y3         0.0758
      3 C15        46.6230  -21.7880   31.9100 C.ar      1 3Y3         0.0298
      4 C19        47.9760  -21.9750   32.4300 C.2       1 3Y3         0.1063
      5 C21        40.5490  -23.9600   27.4750 C.ar      1 3Y3        -0.0601
      6 C22        39.7890  -23.2030   28.3520 C.ar      1 3Y3        -0.0383
      7 C23        39.6990  -23.6230   29.6750 C.ar      1 3Y3        -0.0601
      8 C24        40.4180  -24.7160   30.1240 C.ar      1 3Y3        -0.0686
      9 C11        44.4760  -21.0920   30.2490 C.ar      1 3Y3        -0.0397
     10 C12        45.7280  -20.5220   30.0220 C.ar      1 3Y3        -0.0382
     11 C34        35.0380  -14.3760   28.9740 C.ar      1 3Y3         0.0264
     12 C27        39.2560  -21.8530   27.9320 C.3       1 3Y3         0.0201
     13 C33        35.6470  -13.3280   28.3230 C.ar      1 3Y3        -0.0614
     14 C1         37.3390  -17.2730   28.2460 C.3       1 3Y3         0.0627
     15 N2         38.5580  -17.3230   29.0350 N.am      1 3Y3        -0.2629
     16 C3         39.7960  -20.7180   28.8200 C.3       1 3Y3         0.1285
     17 N4         39.2220  -19.4330   28.4640 N.am      1 3Y3        -0.2505
     18 C5         41.2900  -20.6570   28.7990 C.2       1 3Y3         0.1435
     19 N6         42.0180  -20.3760   27.6470 N.pl3     1 3Y3        -0.2452
     20 C7         43.3330  -20.4860   28.0070 C.2       1 3Y3         0.1448
     21 C8         43.3520  -20.8080   29.3380 C.2       1 3Y3         0.0252
     22 N9         42.0680  -20.9080   29.8260 N.2       1 3Y3        -0.3246
     23 CL         44.5870  -20.2590   26.8710 Cl        1 3Y3        -0.0438
     24 C14        44.2970  -21.9720   31.3200 C.ar      1 3Y3        -0.0711
     25 N17        48.1190  -20.5920   30.7760 N.pl3     1 3Y3        -0.2356
     26 N18        48.8500  -21.2560   31.7310 N.2       1 3Y3        -0.2182
     27 N20        48.3430  -22.7090   33.4930 N.pl3     1 3Y3        -0.3320
     28 C25        41.2120  -25.4240   29.2540 C.ar      1 3Y3        -0.0687
     29 C26        41.2680  -25.0550   27.9270 C.ar      1 3Y3        -0.0686
     30 C28        39.1160  -18.4800   29.4280 C.2       1 3Y3         0.2618
     31 O29        39.5680  -18.6330   30.5600 O.2       1 3Y3        -0.4005
     32 C30        36.7220  -15.9050   28.2120 C.ar      1 3Y3        -0.0136
     33 C31        37.3630  -14.8440   27.5360 C.ar      1 3Y3         0.0054
     34 C32        36.8150  -13.5660   27.6130 C.ar      1 3Y3        -0.0611
     35 C35        35.5520  -15.6490   28.9190 C.ar      1 3Y3        -0.0509
     36 CL1        33.6180  -14.0840   29.9390 Cl        1 3Y3        -0.0789
     37 C37        38.6330  -15.0200   26.7240 C.3       1 3Y3        -0.0037
     38 N38        38.3880  -15.2720   25.2820 N.4       1 3Y3         0.2299
     39 H1         45.1882  -22.9730   32.9879 H         1 3Y3         0.0592
     40 H2         40.5815  -23.6930   26.4249 H         1 3Y3         0.0557
     41 H3         39.0565  -23.0863   30.3637 H         1 3Y3         0.0557
     42 H4         40.3551  -25.0147   31.1641 H         1 3Y3         0.0599
     43 H5         45.8697  -19.8052   29.2212 H         1 3Y3         0.0498
     44 H6         38.1583  -21.8671   28.0022 H         1 3Y3         0.0477
     45 H7         39.5544  -21.6617   26.8907 H         1 3Y3         0.0477
     46 H8         35.2210  -12.3321   28.3642 H         1 3Y3         0.0548
     47 H9         36.6116  -17.9756   28.6786 H         1 3Y3         0.0665
     48 H10        37.5748  -17.5775   27.2156 H         1 3Y3         0.0665
     49 H11        38.9982  -16.4637   29.2953 H         1 3Y3         0.1870
     50 H12        39.4904  -20.9399   29.8531 H         1 3Y3         0.0820
     51 H13        38.9115  -19.2528   27.5307 H         1 3Y3         0.1883
     52 H14        41.6448  -20.1355   26.7176 H         1 3Y3         0.2393
     53 H15        43.3174  -22.3986   31.5030 H         1 3Y3         0.0495
     54 H16        48.5289  -19.9432   30.0890 H         1 3Y3         0.2325
     55 H17        49.3354  -22.7637   33.7632 H         1 3Y3         0.1702
     56 H18        47.6321  -23.2172   34.0381 H         1 3Y3         0.1702
     57 H19        41.7914  -26.2684   29.6095 H         1 3Y3         0.0559
     58 H20        41.8772  -25.6239   27.2340 H         1 3Y3         0.0599
     59 H21        37.3095  -12.7431   27.1096 H         1 3Y3         0.0540
     60 H22        35.0427  -16.4584   29.4295 H         1 3Y3         0.0543
     61 H23        39.1931  -15.8726   27.1354 H         1 3Y3         0.0964
     62 H24        39.2359  -14.1049   26.8192 H         1 3Y3         0.0964
     63 H25        39.2696  -15.3787   24.8050 H         1 3Y3         0.2007
     64 H26        37.8837  -14.4943   24.8859 H         1 3Y3         0.2007
     65 H27        37.8444  -16.1142   25.1757 H         1 3Y3         0.2007
@<TRIPOS>BOND
     1    1    3 ar 
     2   24    1 ar 
     3    2    3 ar 
     4   10    2 ar 
     5    2   25 1  
     6    3    4 1  
     7    4   26 2  
     8    4   27 1  
     9    6    5 ar 
    10    5   29 ar 
    11    6    7 ar 
    12   12    6 1  
    13    7    8 ar 
    14    8   28 ar 
    15    9   10 ar 
    16   21    9 1  
    17    9   24 ar 
    18   11   13 ar 
    19   35   11 ar 
    20   11   36 1  
    21   16   12 1  
    22   13   34 ar 
    23   14   15 1  
    24   32   14 1  
    25   15   30 am 
    26   17   16 1  
    27   16   18 1  
    28   30   17 am 
    29   18   19 1  
    30   18   22 2  
    31   19   20 1  
    32   21   20 2  
    33   20   23 1  
    34   22   21 1  
    35   25   26 1  
    36   29   28 ar 
    37   30   31 2  
    38   32   33 ar 
    39   32   35 ar 
    40   33   34 ar 
    41   33   37 1  
    42   37   38 1  
    43    1   39 1  
    44    5   40 1  
    45    7   41 1  
    46    8   42 1  
    47   10   43 1  
    48   12   44 1  
    49   12   45 1  
    50   13   46 1  
    51   14   47 1  
    52   14   48 1  
    53   15   49 1  
    54   16   50 1  
    55   17   51 1  
    56   19   52 1  
    57   24   53 1  
    58   25   54 1  
    59   27   55 1  
    60   27   56 1  
    61   28   57 1  
    62   29   58 1  
    63   34   59 1  
    64   35   60 1  
    65   37   61 1  
    66   37   62 1  
    67   38   63 1  
    68   38   64 1  
    69   38   65 1  
@<TRIPOS>SUBSTRUCTURE
     1 3Y3         1

