1k27_ligand
  -I-interpret- 

 37 39  0  0  0  0  0  0  0  0999 V2000
   58.5210   13.4930   31.9010 C   0  0  0  0  0
   58.5890   14.5390   30.4230 S   0  0  0  0  0
   59.2520   16.0890   31.1300 C   0  0  0  0  0
   60.7460   16.0410   31.4360 C   0  0  0  0  0
   61.4390   15.5330   30.2470 N   0  3  0  0  0
   61.9800   17.8430   30.3960 C   0  0  0  0  0
   63.3420   18.3630   30.6010 O   0  0  0  0  0
   61.3410   17.4070   31.7860 C   0  0  0  0  0
   62.3740   17.2840   32.8510 O   0  0  0  0  0
   62.0150   16.6010   29.4380 C   0  0  0  0  0
   61.1390   16.7030   28.0930 C   0  0  0  0  0
   60.8640   15.6420   27.2360 C   0  0  0  0  0
   60.1240   15.9570   26.1900 N   0  0  0  0  0
   59.8810   17.3110   26.3470 C   0  0  0  0  0
   59.1570   18.2780   25.5860 C   0  0  0  0  0
   58.5200   17.9650   24.4520 N   0  0  0  0  0
   59.1320   19.5860   26.0670 N   0  0  0  0  0
   59.7750   19.9130   27.2120 C   0  0  0  0  0
   60.4840   19.0820   28.0040 N   0  0  0  0  0
   60.4940   17.7950   27.5090 C   0  0  0  0  0
   59.5228   13.3897   32.3179 H   0  0  0  0  0
   57.8642   13.9524   32.6397 H   0  0  0  0  0
   58.1352   12.5099   31.6313 H   0  0  0  0  0
   58.7338   16.2623   32.0731 H   0  0  0  0  0
   59.0982   16.8742   30.3898 H   0  0  0  0  0
   60.8773   15.3983   32.3065 H   0  0  0  0  0
   60.7573   15.0362   29.6735 H   0  0  0  0  0
   62.1996   14.9296   30.5596 H   0  0  0  0  0
   61.3752   18.6326   29.9500 H   0  0  0  0  0
   63.7151   18.6220   29.7552 H   0  0  0  0  0
   60.6197   18.1224   32.1811 H   0  0  0  0  0
   61.9545   17.0203   33.6732 H   0  0  0  0  0
   63.0389   16.4704   29.0877 H   0  0  0  0  0
   61.2306   14.6312   27.4145 H   0  0  0  0  0
   58.5411   17.0068   24.1030 H   0  0  0  0  0
   58.0132   18.6846   23.9364 H   0  0  0  0  0
   59.7138   20.9548   27.5268 H   0  0  0  0  0
  2  1  1  0  0  0
  3  2  1  0  0  0
  4  3  1  0  0  0
  4  5  1  0  0  0
  8  4  1  0  0  0
  5 10  1  0  0  0
  6  7  1  0  0  0
  8  6  1  0  0  0
  6 10  1  0  0  0
  8  9  1  0  0  0
 10 11  1  0  0  0
 11 12  4  0  0  0
 11 20  4  0  0  0
 12 13  4  0  0  0
 13 14  4  0  0  0
 14 15  4  0  0  0
 14 20  4  0  0  0
 15 16  1  0  0  0
 15 17  4  0  0  0
 17 18  4  0  0  0
 18 19  4  0  0  0
 19 20  4  0  0  0
  1 21  1  0  0  0
  1 22  1  0  0  0
  1 23  1  0  0  0
  3 24  1  0  0  0
  3 25  1  0  0  0
  4 26  1  0  0  0
  5 27  1  0  0  0
  5 28  1  0  0  0
  6 29  1  0  0  0
  7 30  1  0  0  0
  8 31  1  0  0  0
  9 32  1  0  0  0
 10 33  1  0  0  0
 12 34  1  0  0  0
 16 35  1  0  0  0
 16 36  1  0  0  0
 18 37  1  0  0  0
M  END
$$$$
