### 
### Created by X-TOOL on Mon Sep 10 21:12:50 2018
### 

@<TRIPOS>MOLECULE
1k27_ligand
   38    40     1     0     0
SMALL
GAST_HUCK


@<TRIPOS>ATOM
      1 CS         58.5210   13.4930   31.9010 C.3       1 MTM        -0.0179
      2 S5'        58.5890   14.5390   30.4230 S.3       1 MTM        -0.1585
      3 C5'        59.2520   16.0890   31.1300 C.3       1 MTM         0.0389
      4 C4'        60.7460   16.0410   31.4360 C.3       1 MTM         0.0169
      5 N4'        61.4390   15.5330   30.2470 N.4       1 MTM         0.2426
      6 C2'        61.9800   17.8430   30.3960 C.3       1 MTM         0.1329
      7 O2'        63.3420   18.3630   30.6010 O.3       1 MTM        -0.3821
      8 C3'        61.3410   17.4070   31.7860 C.3       1 MTM         0.1304
      9 O3'        62.3740   17.2840   32.8510 O.3       1 MTM        -0.3833
     10 C1'        62.0150   16.6010   29.4380 C.3       1 MTM         0.0270
     11 C9         61.1390   16.7030   28.0930 C.2       1 MTM         0.0222
     12 C8         60.8640   15.6420   27.2360 C.2       1 MTM         0.0330
     13 N7         60.1240   15.9570   26.1900 N.pl3     1 MTM        -0.2768
     14 C5         59.8810   17.3110   26.3470 C.ar      1 MTM         0.1304
     15 C6         59.1570   18.2780   25.5860 C.ar      1 MTM         0.1459
     16 N6         58.5200   17.9650   24.4520 N.pl3     1 MTM        -0.3157
     17 N1         59.1320   19.5860   26.0670 N.ar      1 MTM        -0.2741
     18 C2         59.7750   19.9130   27.2120 C.ar      1 MTM         0.0439
     19 N3         60.4840   19.0820   28.0040 N.ar      1 MTM        -0.3132
     20 C4         60.4940   17.7950   27.5090 C.ar      1 MTM         0.0487
     21 H1         58.1317   12.5005   31.6301 H         1 MTM         0.0341
     22 H2         57.8584   13.9555   32.6474 H         1 MTM         0.0341
     23 H3         59.5315   13.3879   32.3227 H         1 MTM         0.0341
     24 H4         58.7137   16.3007   32.0657 H         1 MTM         0.0432
     25 H5         59.0719   16.9021   30.4113 H         1 MTM         0.0432
     26 H6         60.9104   15.3580   32.2824 H         1 MTM         0.0885
     27 H7         60.7797   15.0199   29.6830 H         1 MTM         0.2029
     28 H8         62.1794   14.9164   30.5430 H         1 MTM         0.2029
     29 H9         61.3602   18.6316   29.9444 H         1 MTM         0.0693
     30 H10        63.8822   17.6869   30.9930 H         1 MTM         0.2103
     31 H11        60.5632   18.1145   32.1090 H         1 MTM         0.0680
     32 H12        61.9588   17.0231   33.6647 H         1 MTM         0.2102
     33 H13        63.0571   16.3796   29.1643 H         1 MTM         0.0963
     34 H14        61.2303   14.6321   27.4143 H         1 MTM         0.0886
     35 H15        59.8016   15.3386   25.4320 H         1 MTM         0.2266
     36 H16        58.0083   18.6916   23.9313 H         1 MTM         0.1805
     37 H17        58.5413   16.9974   24.0996 H         1 MTM         0.1805
     38 H18        59.7142   20.9490   27.5250 H         1 MTM         0.0956
@<TRIPOS>BOND
     1    2    1 1  
     2    3    2 1  
     3    4    3 1  
     4    4    5 1  
     5    8    4 1  
     6    5   10 1  
     7    6    7 1  
     8    8    6 1  
     9    6   10 1  
    10    8    9 1  
    11   10   11 1  
    12   11   12 2  
    13   11   20 1  
    14   12   13 1  
    15   13   14 1  
    16   14   15 ar 
    17   14   20 ar 
    18   15   16 1  
    19   15   17 ar 
    20   17   18 ar 
    21   18   19 ar 
    22   19   20 ar 
    23    1   21 1  
    24    1   22 1  
    25    1   23 1  
    26    3   24 1  
    27    3   25 1  
    28    4   26 1  
    29    5   27 1  
    30    5   28 1  
    31    6   29 1  
    32    7   30 1  
    33    8   31 1  
    34    9   32 1  
    35   10   33 1  
    36   12   34 1  
    37   13   35 1  
    38   16   36 1  
    39   16   37 1  
    40   18   38 1  
@<TRIPOS>SUBSTRUCTURE
     1 MTM         1

