4lch_ligand
  -I-interpret- 

 58 60  0  0  0  0  0  0  0  0999 V2000
   22.1620   -7.7970   -7.3250 O   0  0  0  0  0
   23.2300   -8.4560   -7.5320 N   0  0  0  0  0
   23.2540   -9.7910   -8.0650 C   0  0  0  0  0
   22.2780  -10.4700   -8.0540 O   0  0  0  0  0
   24.5440  -10.3530   -8.6810 C   0  0  0  0  0
   24.8490  -11.5610   -7.9220 N   0  0  0  0  0
   25.6310  -11.5230   -6.7160 C   0  0  0  0  0
   26.2100  -10.5570   -6.3430 O   0  0  0  0  0
   25.9950  -12.8280   -6.0770 C   0  0  0  0  0
   25.2020  -13.9270   -6.2780 C   0  0  0  0  0
   25.5050  -15.1400   -5.6420 C   0  0  0  0  0
   26.4840  -15.1330   -4.6660 C   0  0  0  0  0
   26.7040  -16.3970   -3.9960 C   0  0  0  0  0
   26.8740  -17.4500   -3.4720 C   0  0  0  0  0
   27.0720  -18.7730   -2.8810 C   0  0  0  0  0
   27.2380  -19.8360   -2.4620 C   0  0  0  0  0
   27.4500  -21.1700   -1.9820 C   0  0  0  0  0
   27.2290  -22.1510   -2.9540 C   0  0  0  0  0
   27.5970  -23.4670   -2.7450 C   0  0  0  0  0
   28.0580  -23.7510   -1.4580 C   0  0  0  0  0
   28.3170  -25.1140   -1.1600 N   0  0  0  0  0
   28.2190  -22.7800   -0.4650 C   0  0  0  0  0
   28.0210  -21.4490   -0.7620 C   0  0  0  0  0
   27.3370  -14.0500   -4.5200 C   0  0  0  0  0
   27.0420  -12.8430   -5.1620 C   0  0  0  0  0
   24.4230  -10.6880  -10.1390 C   0  0  0  0  0
   23.9900   -9.6410  -10.8580 O   0  0  0  0  0
   23.3710  -11.6960  -10.3300 C   0  0  0  0  0
   25.7010  -11.0930  -10.7740 C   0  0  0  0  0
   25.9510  -12.4020  -11.3000 C   0  0  0  0  0
   27.0740  -12.7240  -12.0730 C   0  0  0  0  0
   28.0290  -11.7080  -12.2690 C   0  0  0  0  0
   29.1660  -12.0200  -12.9740 O   0  0  0  0  0
   27.8650  -10.4150  -11.6710 C   0  0  0  0  0
   26.6540  -10.0680  -11.0380 C   0  0  0  0  0
   22.3840   -6.9340   -6.9678 H   0  0  0  0  0
   24.1203   -8.0120   -7.3070 H   0  0  0  0  0
   25.3280   -9.5977   -8.6257 H   0  0  0  0  0
   24.4974  -12.4582   -8.2564 H   0  0  0  0  0
   24.3338  -13.8586   -6.9335 H   0  0  0  0  0
   24.9846  -16.0597   -5.9091 H   0  0  0  0  0
   26.7568  -21.8721   -3.8960 H   0  0  0  0  0
   27.5322  -24.2252   -3.5254 H   0  0  0  0  0
   28.1647  -25.8293   -1.8710 H   0  0  0  0  0
   28.6555  -25.3784   -0.2348 H   0  0  0  0  0
   28.5015  -23.0761    0.5453 H   0  0  0  0  0
   28.3022  -20.6584   -0.0664 H   0  0  0  0  0
   28.2341  -14.1388   -3.9073 H   0  0  0  0  0
   27.6159  -11.9406   -4.9513 H   0  0  0  0  0
   24.6245   -8.9237  -10.7907 H   0  0  0  0  0
   22.4228  -11.3039   -9.9622 H   0  0  0  0  0
   23.2819  -11.9298  -11.3909 H   0  0  0  0  0
   23.6307  -12.5994   -9.7781 H   0  0  0  0  0
   25.2284  -13.1898  -11.0872 H   0  0  0  0  0
   27.2028  -13.7170  -12.5037 H   0  0  0  0  0
   29.7274  -11.2435  -13.0336 H   0  0  0  0  0
   28.6827   -9.6951  -11.7061 H   0  0  0  0  0
   26.4509   -9.0349  -10.7560 H   0  0  0  0  0
  1  2  1  0  0  0
  2  3  1  0  0  0
  3  4  2  0  0  0
  3  5  1  0  0  0
  5  6  1  0  0  0
  5 26  1  0  0  0
  6  7  1  0  0  0
  7  8  2  0  0  0
  7  9  1  0  0  0
  9 10  4  0  0  0
  9 25  4  0  0  0
 10 11  4  0  0  0
 11 12  4  0  0  0
 12 13  1  0  0  0
 12 24  4  0  0  0
 13 14  3  0  0  0
 14 15  1  0  0  0
 15 16  3  0  0  0
 16 17  1  0  0  0
 17 18  4  0  0  0
 17 23  4  0  0  0
 18 19  4  0  0  0
 19 20  4  0  0  0
 20 21  1  0  0  0
 20 22  4  0  0  0
 22 23  4  0  0  0
 24 25  4  0  0  0
 26 27  1  0  0  0
 26 28  1  0  0  0
 26 29  1  0  0  0
 29 30  4  0  0  0
 29 35  4  0  0  0
 30 31  4  0  0  0
 31 32  4  0  0  0
 32 33  1  0  0  0
 32 34  4  0  0  0
 34 35  4  0  0  0
  1 36  1  0  0  0
  2 37  1  0  0  0
  5 38  1  0  0  0
  6 39  1  0  0  0
 10 40  1  0  0  0
 11 41  1  0  0  0
 18 42  1  0  0  0
 19 43  1  0  0  0
 21 44  1  0  0  0
 21 45  1  0  0  0
 22 46  1  0  0  0
 23 47  1  0  0  0
 24 48  1  0  0  0
 25 49  1  0  0  0
 27 50  1  0  0  0
 28 51  1  0  0  0
 28 52  1  0  0  0
 28 53  1  0  0  0
 30 54  1  0  0  0
 31 55  1  0  0  0
 33 56  1  0  0  0
 34 57  1  0  0  0
 35 58  1  0  0  0
M  END
$$$$
