### 
### Created by X-TOOL on Mon Sep 10 21:13:13 2018
### 

@<TRIPOS>MOLECULE
4lch_ligand
   58    60     1     0     0
SMALL
GAST_HUCK


@<TRIPOS>ATOM
      1 O1         22.1620   -7.7970   -7.3250 O.3       1 1WN        -0.2717
      2 N1         23.2300   -8.4560   -7.5320 N.am      1 1WN        -0.1631
      3 C1         23.2540   -9.7910   -8.0650 C.2       1 1WN         0.2167
      4 O2         22.2780  -10.4700   -8.0540 O.2       1 1WN        -0.3954
      5 C2         24.5440  -10.3530   -8.6810 C.3       1 1WN         0.1313
      6 N2         24.8490  -11.5610   -7.9220 N.am      1 1WN        -0.2718
      7 C3         25.6310  -11.5230   -6.7160 C.2       1 1WN         0.2056
      8 O3         26.2100  -10.5570   -6.3430 O.2       1 1WN        -0.3852
      9 C4         25.9950  -12.8280   -6.0770 C.ar      1 1WN         0.0490
     10 C5         25.2020  -13.9270   -6.2780 C.ar      1 1WN        -0.0417
     11 C6         25.5050  -15.1400   -5.6420 C.ar      1 1WN        -0.0418
     12 C7         26.4840  -15.1330   -4.6660 C.ar      1 1WN         0.0281
     13 C8         26.7040  -16.3970   -3.9960 C.1       1 1WN        -0.0524
     14 C9         26.8740  -17.4500   -3.4720 C.1       1 1WN        -0.0115
     15 C10        27.0720  -18.7730   -2.8810 C.1       1 1WN        -0.0146
     16 C11        27.2380  -19.8360   -2.4620 C.1       1 1WN        -0.0616
     17 C12        27.4500  -21.1700   -1.9820 C.ar      1 1WN         0.0145
     18 C13        27.2290  -22.1510   -2.9540 C.ar      1 1WN        -0.0563
     19 C14        27.5970  -23.4670   -2.7450 C.ar      1 1WN        -0.0416
     20 C15        28.0580  -23.7510   -1.4580 C.ar      1 1WN         0.0378
     21 N3         28.3170  -25.1140   -1.1600 N.pl3     1 1WN        -0.3355
     22 C16        28.2190  -22.7800   -0.4650 C.ar      1 1WN        -0.0416
     23 C17        28.0210  -21.4490   -0.7620 C.ar      1 1WN        -0.0563
     24 C18        27.3370  -14.0500   -4.5200 C.ar      1 1WN        -0.0418
     25 C19        27.0420  -12.8430   -5.1620 C.ar      1 1WN        -0.0417
     26 C20        24.4230  -10.6880  -10.1390 C.3       1 1WN         0.0806
     27 O4         23.9900   -9.6410  -10.8580 O.3       1 1WN        -0.4285
     28 C21        23.3710  -11.6960  -10.3300 C.3       1 1WN        -0.0625
     29 C22        25.7010  -11.0930  -10.7740 C.ar      1 1WN        -0.0330
     30 C23        25.9510  -12.4020  -11.3000 C.ar      1 1WN        -0.0437
     31 C24        27.0740  -12.7240  -12.0730 C.ar      1 1WN         0.0012
     32 C25        28.0290  -11.7080  -12.2690 C.ar      1 1WN         0.1256
     33 O5         29.1660  -12.0200  -12.9740 O.3       1 1WN        -0.3081
     34 C26        27.8650  -10.4150  -11.6710 C.ar      1 1WN         0.0012
     35 C27        26.6540  -10.0680  -11.0380 C.ar      1 1WN        -0.0437
     36 H1         22.3817   -6.9430   -6.9715 H         1 1WN         0.2490
     37 H2         24.1028   -8.0207   -7.3114 H         1 1WN         0.2217
     38 H3         25.3529   -9.6175   -8.5597 H         1 1WN         0.0704
     39 H4         24.5043  -12.4406   -8.2499 H         1 1WN         0.1866
     40 H5         24.3386  -13.8590   -6.9299 H         1 1WN         0.0666
     41 H6         24.9874  -16.0547   -5.9076 H         1 1WN         0.0636
     42 H7         26.7594  -21.8736   -3.8908 H         1 1WN         0.0603
     43 H8         27.5326  -24.2210   -3.5211 H         1 1WN         0.0523
     44 H9         28.6588  -25.3810   -0.2258 H         1 1WN         0.1731
     45 H10        28.1632  -25.8364   -1.8779 H         1 1WN         0.1731
     46 H11        28.4999  -23.0745    0.5397 H         1 1WN         0.0523
     47 H12        28.3007  -20.6627   -0.0702 H         1 1WN         0.0603
     48 H13        28.2291  -14.1383   -3.9106 H         1 1WN         0.0636
     49 H14        27.6128  -11.9456   -4.9525 H         1 1WN         0.0666
     50 H15        23.1354   -9.3728  -10.5416 H         1 1WN         0.1933
     51 H16        23.2856  -11.9386  -11.3995 H         1 1WN         0.0142
     52 H17        22.4119  -11.2985   -9.9665 H         1 1WN         0.0142
     53 H18        23.6280  -12.6054   -9.7671 H         1 1WN         0.0142
     54 H19        25.2324  -13.1855  -11.0884 H         1 1WN         0.0824
     55 H20        27.2021  -13.7115  -12.5013 H         1 1WN         0.0651
     56 H21        29.7215  -11.2516  -13.0330 H         1 1WN         0.2631
     57 H22        28.6782   -9.6991  -11.7059 H         1 1WN         0.0651
     58 H23        26.4520   -9.0406  -10.7575 H         1 1WN         0.0824
@<TRIPOS>BOND
     1    1    2 1  
     2    2    3 am 
     3    3    4 2  
     4    3    5 1  
     5    5    6 1  
     6    5   26 1  
     7    6    7 am 
     8    7    8 2  
     9    7    9 1  
    10    9   10 ar 
    11    9   25 ar 
    12   10   11 ar 
    13   11   12 ar 
    14   12   13 1  
    15   12   24 ar 
    16   13   14 3  
    17   14   15 1  
    18   15   16 3  
    19   16   17 1  
    20   17   18 ar 
    21   17   23 ar 
    22   18   19 ar 
    23   19   20 ar 
    24   20   21 1  
    25   20   22 ar 
    26   22   23 ar 
    27   24   25 ar 
    28   26   27 1  
    29   26   28 1  
    30   26   29 1  
    31   29   30 ar 
    32   29   35 ar 
    33   30   31 ar 
    34   31   32 ar 
    35   32   33 1  
    36   32   34 ar 
    37   34   35 ar 
    38    1   36 1  
    39    2   37 1  
    40    5   38 1  
    41    6   39 1  
    42   10   40 1  
    43   11   41 1  
    44   18   42 1  
    45   19   43 1  
    46   21   44 1  
    47   21   45 1  
    48   22   46 1  
    49   23   47 1  
    50   24   48 1  
    51   25   49 1  
    52   27   50 1  
    53   28   51 1  
    54   28   52 1  
    55   28   53 1  
    56   30   54 1  
    57   31   55 1  
    58   33   56 1  
    59   34   57 1  
    60   35   58 1  
@<TRIPOS>SUBSTRUCTURE
     1 1WN         1

