1xkk_ligand
  -I-interpret- 

 67 71  0  0  0  0  0  0  0  0999 V2000
   22.6040   34.4870   31.1410 C   0  0  0  0  0
   24.0360   33.4650   31.3500 S   0  0  0  0  0
   25.0530   34.2040   32.0670 O   0  0  0  0  0
   24.5430   33.0770   30.0530 O   0  0  0  0  0
   23.5870   31.9800   32.2910 C   0  0  0  0  0
   22.0610   31.8360   32.3240 C   0  0  0  0  0
   21.5690   32.1840   33.6650 N   0  3  0  0  0
   20.9140   31.0190   34.2650 C   0  0  0  0  0
   19.4160   31.2080   34.2230 C   0  0  0  0  0
   18.6740   30.9770   33.1210 C   0  0  0  0  0
   17.4450   31.2370   33.4210 C   0  0  0  0  0
   17.4090   31.6450   34.7310 C   0  0  0  0  0
   18.6550   31.6530   35.3630 O   0  0  0  0  0
   16.1760   32.0580   35.4070 C   0  0  0  0  0
   14.9580   31.9860   34.7350 C   0  0  0  0  0
   13.8070   32.4020   35.3590 C   0  0  0  0  0
   13.8490   32.8900   36.6640 C   0  0  0  0  0
   12.6830   33.3050   37.2760 N   0  0  0  0  0
   12.7080   33.7900   38.5680 C   0  0  0  0  0
   13.8990   33.8630   39.2600 N   0  0  0  0  0
   15.0770   33.4520   38.6680 C   0  0  0  0  0
   16.2820   33.5270   39.3660 N   0  0  0  0  0
   16.3320   33.8430   40.7350 C   0  0  0  0  0
   17.1180   34.9090   41.1780 C   0  0  0  0  0
   17.1640   35.2150   42.5350 C   0  0  0  0  0
   16.4280   34.4570   43.4380 C   0  0  0  0  0
   16.4460   34.7470   44.8280 O   0  0  0  0  0
   17.0650   36.0020   45.1430 C   0  0  0  0  0
   16.0850   37.1810   44.9840 C   0  0  0  0  0
   16.5190   38.4620   45.2460 C   0  0  0  0  0
   15.6530   39.5270   45.1020 C   0  0  0  0  0
   14.3540   39.3120   44.6930 C   0  0  0  0  0
   13.9160   38.0360   44.4290 C   0  0  0  0  0
   12.6790   37.8370   44.0350 F   0  0  0  0  0
   14.7720   36.9660   44.5730 C   0  0  0  0  0
   15.6650   33.4150   42.9990 C   0  0  0  0  0
   14.7840   32.5140   44.1280 Cl  0  0  0  0  0
   15.6070   33.0980   41.6600 C   0  0  0  0  0
   15.0530   32.9590   37.3490 C   0  0  0  0  0
   16.2200   32.5450   36.7310 C   0  0  0  0  0
   22.2215   34.7787   32.1191 H   0  0  0  0  0
   22.8747   35.3782   30.5748 H   0  0  0  0  0
   21.8378   33.9307   30.6010 H   0  0  0  0  0
   23.9652   32.0678   33.3095 H   0  0  0  0  0
   24.0240   31.1025   31.8143 H   0  0  0  0  0
   21.7864   30.8074   32.0902 H   0  0  0  0  0
   21.6154   32.5042   31.5871 H   0  0  0  0  0
   20.8991   32.9497   33.5924 H   0  0  0  0  0
   22.3536   32.4708   34.2503 H   0  0  0  0  0
   21.2383   30.9123   35.3001 H   0  0  0  0  0
   21.1834   30.1225   33.7066 H   0  0  0  0  0
   19.0435   30.6339   32.1546 H   0  0  0  0  0
   16.5886   31.1482   32.7526 H   0  0  0  0  0
   14.9182   31.6004   33.7163 H   0  0  0  0  0
   12.8552   32.3501   34.8304 H   0  0  0  0  0
   11.7830   34.1166   39.0433 H   0  0  0  0  0
   17.1538   33.3471   38.8680 H   0  0  0  0  0
   17.6930   35.4988   40.4641 H   0  0  0  0  0
   17.7748   36.0458   42.8881 H   0  0  0  0  0
   17.8979   36.1545   44.4566 H   0  0  0  0  0
   17.3955   35.9694   46.1812 H   0  0  0  0  0
   17.5463   38.6344   45.5670 H   0  0  0  0  0
   15.9967   40.5399   45.3120 H   0  0  0  0  0
   13.6730   40.1554   44.5788 H   0  0  0  0  0
   14.4226   35.9545   44.3659 H   0  0  0  0  0
   14.9925   32.2626   41.3245 H   0  0  0  0  0
   17.1692   32.5948   37.2645 H   0  0  0  0  0
  1  2  1  0  0  0
  2  3  2  0  0  0
  2  4  2  0  0  0
  2  5  1  0  0  0
  5  6  1  0  0  0
  6  7  1  0  0  0
  7  8  1  0  0  0
  8  9  1  0  0  0
  9 10  4  0  0  0
  9 13  4  0  0  0
 10 11  4  0  0  0
 11 12  4  0  0  0
 12 13  4  0  0  0
 12 14  1  0  0  0
 14 15  4  0  0  0
 14 40  4  0  0  0
 15 16  4  0  0  0
 16 17  4  0  0  0
 17 18  4  0  0  0
 17 39  4  0  0  0
 18 19  4  0  0  0
 19 20  4  0  0  0
 20 21  4  0  0  0
 21 22  1  0  0  0
 21 39  4  0  0  0
 22 23  1  0  0  0
 23 24  4  0  0  0
 23 38  4  0  0  0
 24 25  4  0  0  0
 25 26  4  0  0  0
 26 27  1  0  0  0
 26 36  4  0  0  0
 27 28  1  0  0  0
 28 29  1  0  0  0
 29 30  4  0  0  0
 29 35  4  0  0  0
 30 31  4  0  0  0
 31 32  4  0  0  0
 32 33  4  0  0  0
 33 34  1  0  0  0
 33 35  4  0  0  0
 36 37  1  0  0  0
 36 38  4  0  0  0
 39 40  4  0  0  0
  1 41  1  0  0  0
  1 42  1  0  0  0
  1 43  1  0  0  0
  5 44  1  0  0  0
  5 45  1  0  0  0
  6 46  1  0  0  0
  6 47  1  0  0  0
  7 48  1  0  0  0
  7 49  1  0  0  0
  8 50  1  0  0  0
  8 51  1  0  0  0
 10 52  1  0  0  0
 11 53  1  0  0  0
 15 54  1  0  0  0
 16 55  1  0  0  0
 19 56  1  0  0  0
 22 57  1  0  0  0
 24 58  1  0  0  0
 25 59  1  0  0  0
 28 60  1  0  0  0
 28 61  1  0  0  0
 30 62  1  0  0  0
 31 63  1  0  0  0
 32 64  1  0  0  0
 35 65  1  0  0  0
 38 66  1  0  0  0
 40 67  1  0  0  0
M  END
$$$$
