### 
### Created by X-TOOL on Mon Sep 10 21:13:08 2018
### 

@<TRIPOS>MOLECULE
3su1_ligand
   95   100     1     0     0
SMALL
GAST_HUCK


@<TRIPOS>ATOM
      1 C1        -12.5010   -6.1690   17.0500 C.3       1 TSV        -0.0069
      2 F1        -15.4910  -14.1150   18.8240 F         1 TSV        -0.1836
      3 N1        -18.1430   -9.4490   14.7320 N.am      1 TSV        -0.2412
      4 O1        -19.1140  -10.9770   16.1970 O.3       1 TSV        -0.2580
      5 S1         -8.8420   -6.0870   13.6280 S.o2      1 TSV         0.0645
      6 C2        -12.1340   -6.6390   15.6340 C.3       1 TSV         0.1453
      7 N2        -12.4060   -8.0260   15.3590 N.am      1 TSV        -0.2722
      8 O2        -17.8270  -11.6650   14.3980 O.2       1 TSV        -0.3774
      9 C3        -13.4200   -5.8260   15.8840 C.3       1 TSV         0.0105
     10 N3        -10.1160   -6.7570   14.2850 N.am      1 TSV        -0.1550
     11 O3        -15.5410   -8.3630   15.2350 O.2       1 TSV        -0.3942
     12 C4        -10.9140   -5.9930   15.0550 C.2       1 TSV         0.2463
     13 N4        -13.4150  -14.4410   15.0170 N.am      1 TSV        -0.2075
     14 O4         -7.9220   -5.5760   14.6020 O.2       1 TSV        -0.1503
     15 C5        -13.5010   -4.3750   15.4940 C.2       1 TSV        -0.0942
     16 N5        -14.8970   -9.8470   13.6950 N.am      1 TSV        -0.2469
     17 O5        -12.5170  -14.0390   12.9730 O.2       1 TSV        -0.3166
     18 C6        -18.1880  -13.0770   17.0080 C.3       1 TSV        -0.0320
     19 O6         -9.2600   -5.0750   12.6820 O.2       1 TSV        -0.1503
     20 C7        -20.2640  -12.0400   17.9460 C.3       1 TSV        -0.0320
     21 O7        -13.1290   -7.6620   13.2740 O.2       1 TSV        -0.3947
     22 C8        -20.2930  -12.9890   15.6360 C.3       1 TSV        -0.0320
     23 O8        -14.0800  -12.5780   13.8200 O.3       1 TSV        -0.2338
     24 C9        -19.4480  -12.2730   16.6850 C.3       1 TSV         0.0905
     25 O9        -10.6590   -4.8260   15.2860 O.2       1 TSV        -0.3402
     26 C10       -14.4600   -3.9060   14.6820 C.2       1 TSV        -0.0985
     27 C11       -12.9660   -8.4140   14.2220 C.2       1 TSV         0.2014
     28 C12       -12.8620  -15.7860   15.2750 C.2       1 TSV         0.0391
     29 C13       -15.5530   -4.7720   14.0870 C.3       1 TSV        -0.0365
     30 C14       -13.8340  -17.3370   18.6360 C.ar      1 TSV        -0.0639
     31 C15       -13.5070   -9.8120   14.1770 C.3       1 TSV         0.1363
     32 C16       -13.2320  -17.2560   17.3850 C.ar      1 TSV        -0.0660
     33 C17       -14.5920  -16.2820   19.1350 C.ar      1 TSV        -0.0284
     34 C18       -15.4250   -4.8370   12.5710 C.3       1 TSV        -0.0464
     35 C19       -16.6000   -5.6080   11.9560 C.3       1 TSV        -0.0513
     36 C20       -18.3250  -10.7320   15.0250 C.2       1 TSV         0.3223
     37 C21       -14.7640  -15.1340   18.3550 C.ar      1 TSV         0.1323
     38 C22       -16.5080   -7.1200   12.2010 C.3       1 TSV        -0.0487
     39 C23        -8.1130   -7.2960   12.7250 C.3       1 TSV         0.1004
     40 C24       -13.4140  -16.0930   16.6340 C.ar      1 TSV        -0.0325
     41 C25       -17.5230   -7.6140   13.2370 C.3       1 TSV        -0.0124
     42 C26       -14.1560  -15.0750   17.1210 C.ar      1 TSV         0.0028
     43 C27       -12.7710  -10.6690   13.1650 C.3       1 TSV         0.0206
     44 C28       -17.2140   -9.0310   13.7080 C.3       1 TSV         0.1330
     45 C29        -6.6620   -7.0960   12.2880 C.3       1 TSV        -0.0268
     46 C30       -13.8160  -11.6710   12.7590 C.3       1 TSV         0.1158
     47 C31       -14.2130  -13.9410   16.1410 C.2       1 TSV         0.0402
     48 C32        -6.9850   -8.0690   13.4110 C.3       1 TSV        -0.0268
     49 C33       -15.8170   -9.0730   14.2730 C.2       1 TSV         0.2064
     50 C34       -15.0550  -10.8190   12.5990 C.3       1 TSV         0.0677
     51 C35       -13.2520  -13.7560   13.9040 C.2       1 TSV         0.4317
     52 H1        -11.9115   -5.3771   17.5352 H         1 TSV         0.0300
     53 H2        -12.8227   -6.9014   17.8050 H         1 TSV         0.0300
     54 H3        -18.6617   -8.7559   15.2325 H         1 TSV         0.1899
     55 H4        -12.1662   -8.7144   16.0436 H         1 TSV         0.1841
     56 H5        -14.4035   -6.3057   15.7718 H         1 TSV         0.0435
     57 H6        -10.3233   -7.7233   14.1323 H         1 TSV         0.2148
     58 H7        -12.7563   -3.6827   15.8839 H         1 TSV         0.0452
     59 H8        -18.4734  -14.0713   17.3820 H         1 TSV         0.0260
     60 H9        -17.6037  -12.5500   17.7767 H         1 TSV         0.0260
     61 H10       -17.5805  -13.1882   16.0977 H         1 TSV         0.0260
     62 H11       -20.5569  -13.0086   18.3774 H         1 TSV         0.0260
     63 H12       -21.1660  -11.4616   17.6974 H         1 TSV         0.0260
     64 H13       -19.6597  -11.4814   18.6758 H         1 TSV         0.0260
     65 H14       -20.5579  -13.9923   16.0010 H         1 TSV         0.0260
     66 H15       -19.7194  -13.0785   14.7017 H         1 TSV         0.0260
     67 H16       -21.2110  -12.4127   15.4489 H         1 TSV         0.0260
     68 H17       -14.4532   -2.8450   14.4366 H         1 TSV         0.0450
     69 H18       -12.2197  -16.3963   14.6419 H         1 TSV         0.0373
     70 H19       -16.5330   -4.3463   14.3484 H         1 TSV         0.0388
     71 H20       -15.4728   -5.7885   14.4997 H         1 TSV         0.0388
     72 H21       -13.7110  -18.2348   19.2309 H         1 TSV         0.0607
     73 H22       -13.4354  -10.2533   15.1821 H         1 TSV         0.0803
     74 H23       -12.6357  -18.0762   17.0020 H         1 TSV         0.0580
     75 H24       -15.0443  -16.3493   20.1178 H         1 TSV         0.0604
     76 H25       -14.4848   -5.3450   12.3102 H         1 TSV         0.0285
     77 H26       -15.4138   -3.8143   12.1661 H         1 TSV         0.0285
     78 H27       -16.6105   -5.4272   10.8710 H         1 TSV         0.0267
     79 H28       -17.5356   -5.2359   12.3988 H         1 TSV         0.0267
     80 H29       -15.4955   -7.3575   12.5594 H         1 TSV         0.0267
     81 H30       -16.6926   -7.6424   11.2507 H         1 TSV         0.0267
     82 H31        -8.8410   -7.7954   12.0688 H         1 TSV         0.0559
     83 H32       -18.5262   -7.6004   12.7860 H         1 TSV         0.0312
     84 H33       -17.5020   -6.9387   14.1050 H         1 TSV         0.0312
     85 H34       -11.9022  -11.1651   13.6223 H         1 TSV         0.0342
     86 H35       -12.4400  -10.0700   12.3038 H         1 TSV         0.0342
     87 H36       -17.2855   -9.7185   12.8523 H         1 TSV         0.0799
     88 H37        -6.1462   -6.1505   12.5117 H         1 TSV         0.0285
     89 H38        -6.3248   -7.4757   11.3122 H         1 TSV         0.0285
     90 H39       -13.5410  -12.2039   11.8368 H         1 TSV         0.0673
     91 H40       -14.7214  -12.9830   16.2398 H         1 TSV         0.0367
     92 H41        -6.8817   -9.1517   13.2467 H         1 TSV         0.0285
     93 H42        -6.7031   -7.8266   14.4462 H         1 TSV         0.0285
     94 H43       -15.0730  -10.3186   11.6196 H         1 TSV         0.0553
     95 H44       -15.9703  -11.4164   12.7225 H         1 TSV         0.0553
@<TRIPOS>BOND
     1    6    1 1  
     2    9    1 1  
     3   37    2 1  
     4    3   36 am 
     5   44    3 1  
     6    4   24 1  
     7   36    4 1  
     8   10    5 am 
     9    5   14 2  
    10    5   19 2  
    11    5   39 1  
    12    7    6 1  
    13    6    9 1  
    14    6   12 1  
    15   27    7 am 
    16   36    8 2  
    17    9   15 1  
    18   12   10 am 
    19   49   11 2  
    20   12   25 2  
    21   13   28 1  
    22   13   47 1  
    23   51   13 am 
    24   15   26 2  
    25   31   16 1  
    26   16   49 am 
    27   16   50 1  
    28   51   17 2  
    29   24   18 1  
    30   24   20 1  
    31   27   21 2  
    32   24   22 1  
    33   46   23 1  
    34   23   51 1  
    35   26   29 1  
    36   31   27 1  
    37   28   40 2  
    38   29   34 1  
    39   32   30 ar 
    40   33   30 ar 
    41   43   31 1  
    42   40   32 ar 
    43   37   33 ar 
    44   34   35 1  
    45   35   38 1  
    46   42   37 ar 
    47   38   41 1  
    48   39   45 1  
    49   39   48 1  
    50   42   40 ar 
    51   41   44 1  
    52   47   42 2  
    53   43   46 1  
    54   44   49 1  
    55   45   48 1  
    56   46   50 1  
    57    1   52 1  
    58    1   53 1  
    59    3   54 1  
    60    7   55 1  
    61    9   56 1  
    62   10   57 1  
    63   15   58 1  
    64   18   59 1  
    65   18   60 1  
    66   18   61 1  
    67   20   62 1  
    68   20   63 1  
    69   20   64 1  
    70   22   65 1  
    71   22   66 1  
    72   22   67 1  
    73   26   68 1  
    74   28   69 1  
    75   29   70 1  
    76   29   71 1  
    77   30   72 1  
    78   31   73 1  
    79   32   74 1  
    80   33   75 1  
    81   34   76 1  
    82   34   77 1  
    83   35   78 1  
    84   35   79 1  
    85   38   80 1  
    86   38   81 1  
    87   39   82 1  
    88   41   83 1  
    89   41   84 1  
    90   43   85 1  
    91   43   86 1  
    92   44   87 1  
    93   45   88 1  
    94   45   89 1  
    95   46   90 1  
    96   47   91 1  
    97   48   92 1  
    98   48   93 1  
    99   50   94 1  
   100   50   95 1  
@<TRIPOS>SUBSTRUCTURE
     1 TSV         1

