3su1_ligand
  -I-interpret- 

 95100  0  0  0  0  0  0  0  0999 V2000
  -12.5010   -6.1690   17.0500 C   0  0  0  0  0
  -15.4910  -14.1150   18.8240 F   0  0  0  0  0
  -18.1430   -9.4490   14.7320 N   0  0  0  0  0
  -19.1140  -10.9770   16.1970 O   0  0  0  0  0
   -8.8420   -6.0870   13.6280 S   0  0  0  0  0
  -12.1340   -6.6390   15.6340 C   0  0  0  0  0
  -12.4060   -8.0260   15.3590 N   0  0  0  0  0
  -17.8270  -11.6650   14.3980 O   0  0  0  0  0
  -13.4200   -5.8260   15.8840 C   0  0  0  0  0
  -10.1160   -6.7570   14.2850 N   0  0  0  0  0
  -15.5410   -8.3630   15.2350 O   0  0  0  0  0
  -10.9140   -5.9930   15.0550 C   0  0  0  0  0
  -13.4150  -14.4410   15.0170 N   0  0  0  0  0
   -7.9220   -5.5760   14.6020 O   0  0  0  0  0
  -13.5010   -4.3750   15.4940 C   0  0  0  0  0
  -14.8970   -9.8470   13.6950 N   0  0  0  0  0
  -12.5170  -14.0390   12.9730 O   0  0  0  0  0
  -18.1880  -13.0770   17.0080 C   0  0  0  0  0
   -9.2600   -5.0750   12.6820 O   0  0  0  0  0
  -20.2640  -12.0400   17.9460 C   0  0  0  0  0
  -13.1290   -7.6620   13.2740 O   0  0  0  0  0
  -20.2930  -12.9890   15.6360 C   0  0  0  0  0
  -14.0800  -12.5780   13.8200 O   0  0  0  0  0
  -19.4480  -12.2730   16.6850 C   0  0  0  0  0
  -10.6590   -4.8260   15.2860 O   0  0  0  0  0
  -14.4600   -3.9060   14.6820 C   0  0  0  0  0
  -12.9660   -8.4140   14.2220 C   0  0  0  0  0
  -12.8620  -15.7860   15.2750 C   0  0  0  0  0
  -15.5530   -4.7720   14.0870 C   0  0  0  0  0
  -13.8340  -17.3370   18.6360 C   0  0  0  0  0
  -13.5070   -9.8120   14.1770 C   0  0  0  0  0
  -13.2320  -17.2560   17.3850 C   0  0  0  0  0
  -14.5920  -16.2820   19.1350 C   0  0  0  0  0
  -15.4250   -4.8370   12.5710 C   0  0  0  0  0
  -16.6000   -5.6080   11.9560 C   0  0  0  0  0
  -18.3250  -10.7320   15.0250 C   0  0  0  0  0
  -14.7640  -15.1340   18.3550 C   0  0  0  0  0
  -16.5080   -7.1200   12.2010 C   0  0  0  0  0
   -8.1130   -7.2960   12.7250 C   0  0  0  0  0
  -13.4140  -16.0930   16.6340 C   0  0  0  0  0
  -17.5230   -7.6140   13.2370 C   0  0  0  0  0
  -14.1560  -15.0750   17.1210 C   0  0  0  0  0
  -12.7710  -10.6690   13.1650 C   0  0  0  0  0
  -17.2140   -9.0310   13.7080 C   0  0  0  0  0
   -6.6620   -7.0960   12.2880 C   0  0  0  0  0
  -13.8160  -11.6710   12.7590 C   0  0  0  0  0
  -14.2130  -13.9410   16.1410 C   0  0  0  0  0
   -6.9850   -8.0690   13.4110 C   0  0  0  0  0
  -15.8170   -9.0730   14.2730 C   0  0  0  0  0
  -15.0550  -10.8190   12.5990 C   0  0  0  0  0
  -13.2520  -13.7560   13.9040 C   0  0  0  0  0
  -12.0239   -5.6589   17.8868 H   0  0  0  0  0
  -12.5811   -6.5910   18.0518 H   0  0  0  0  0
  -18.6721   -8.7420   15.2425 H   0  0  0  0  0
  -12.1614   -8.7281   16.0573 H   0  0  0  0  0
  -14.4663   -5.9863   15.6239 H   0  0  0  0  0
  -10.3275   -7.7426   14.1292 H   0  0  0  0  0
  -12.7556   -3.6821   15.8843 H   0  0  0  0  0
  -17.5820  -12.5267   17.7277 H   0  0  0  0  0
  -18.4719  -14.0404   17.4315 H   0  0  0  0  0
  -17.6152  -13.2350   16.0942 H   0  0  0  0  0
  -20.5539  -13.0004   18.3722 H   0  0  0  0  0
  -19.6640  -11.4867   18.6684 H   0  0  0  0  0
  -21.1572  -11.4664   17.6984 H   0  0  0  0  0
  -19.7098  -13.1114   14.7233 H   0  0  0  0  0
  -20.5873  -13.9678   16.0147 H   0  0  0  0  0
  -21.1835  -12.3976   15.4231 H   0  0  0  0  0
  -14.4532   -2.8440   14.4364 H   0  0  0  0  0
  -12.2191  -16.3969   14.6413 H   0  0  0  0  0
  -16.5212   -4.3399   14.3401 H   0  0  0  0  0
  -15.4623   -5.7802   14.4913 H   0  0  0  0  0
  -13.7104  -18.2397   19.2342 H   0  0  0  0  0
  -13.4026  -10.1758   15.1992 H   0  0  0  0  0
  -12.6324  -18.0808   16.9999 H   0  0  0  0  0
  -15.0468  -16.3497   20.1233 H   0  0  0  0  0
  -14.4976   -5.3512   12.3189 H   0  0  0  0  0
  -15.4259   -3.8215   12.1749 H   0  0  0  0  0
  -16.5829   -5.4415   10.8789 H   0  0  0  0  0
  -17.5173   -5.2483   12.4221 H   0  0  0  0  0
  -15.5096   -7.3374   12.5805 H   0  0  0  0  0
  -16.7190   -7.6252   11.2585 H   0  0  0  0  0
   -9.0372   -7.5522   12.2071 H   0  0  0  0  0
  -18.5096   -7.6161   12.7737 H   0  0  0  0  0
  -17.4793   -6.9504   14.1006 H   0  0  0  0  0
  -11.8729  -11.1326   13.5732 H   0  0  0  0  0
  -12.3826  -10.0949   12.3238 H   0  0  0  0  0
  -17.3030   -9.7044   12.8555 H   0  0  0  0  0
   -5.9745   -6.2725   12.0949 H   0  0  0  0  0
   -6.0832   -7.0794   11.3645 H   0  0  0  0  0
  -13.5167  -12.2416   11.8799 H   0  0  0  0  0
  -14.7219  -12.9822   16.2399 H   0  0  0  0  0
   -6.7532   -9.0960   13.6932 H   0  0  0  0  0
   -6.6446   -8.2902   14.4226 H   0  0  0  0  0
  -15.1373  -10.3544   11.6164 H   0  0  0  0  0
  -15.9827  -11.3885   12.6554 H   0  0  0  0  0
  6  1  1  0  0  0
  9  1  1  0  0  0
 37  2  1  0  0  0
  3 36  1  0  0  0
 44  3  1  0  0  0
  4 24  1  0  0  0
 36  4  1  0  0  0
 10  5  1  0  0  0
  5 14  2  0  0  0
  5 19  2  0  0  0
  5 39  1  0  0  0
  7  6  1  0  0  0
  6  9  1  0  0  0
  6 12  1  0  0  0
 27  7  1  0  0  0
 36  8  2  0  0  0
  9 15  1  0  0  0
 12 10  1  0  0  0
 49 11  2  0  0  0
 12 25  2  0  0  0
 13 28  4  0  0  0
 13 47  4  0  0  0
 51 13  1  0  0  0
 15 26  2  0  0  0
 31 16  1  0  0  0
 16 49  1  0  0  0
 16 50  1  0  0  0
 51 17  2  0  0  0
 24 18  1  0  0  0
 24 20  1  0  0  0
 27 21  2  0  0  0
 24 22  1  0  0  0
 46 23  1  0  0  0
 23 51  1  0  0  0
 26 29  1  0  0  0
 31 27  1  0  0  0
 28 40  4  0  0  0
 29 34  1  0  0  0
 32 30  4  0  0  0
 33 30  4  0  0  0
 43 31  1  0  0  0
 40 32  4  0  0  0
 37 33  4  0  0  0
 34 35  1  0  0  0
 35 38  1  0  0  0
 42 37  4  0  0  0
 38 41  1  0  0  0
 39 45  1  0  0  0
 39 48  1  0  0  0
 42 40  4  0  0  0
 41 44  1  0  0  0
 47 42  4  0  0  0
 43 46  1  0  0  0
 44 49  1  0  0  0
 45 48  1  0  0  0
 46 50  1  0  0  0
  1 52  1  0  0  0
  1 53  1  0  0  0
  3 54  1  0  0  0
  7 55  1  0  0  0
  9 56  1  0  0  0
 10 57  1  0  0  0
 15 58  1  0  0  0
 18 59  1  0  0  0
 18 60  1  0  0  0
 18 61  1  0  0  0
 20 62  1  0  0  0
 20 63  1  0  0  0
 20 64  1  0  0  0
 22 65  1  0  0  0
 22 66  1  0  0  0
 22 67  1  0  0  0
 26 68  1  0  0  0
 28 69  1  0  0  0
 29 70  1  0  0  0
 29 71  1  0  0  0
 30 72  1  0  0  0
 31 73  1  0  0  0
 32 74  1  0  0  0
 33 75  1  0  0  0
 34 76  1  0  0  0
 34 77  1  0  0  0
 35 78  1  0  0  0
 35 79  1  0  0  0
 38 80  1  0  0  0
 38 81  1  0  0  0
 39 82  1  0  0  0
 41 83  1  0  0  0
 41 84  1  0  0  0
 43 85  1  0  0  0
 43 86  1  0  0  0
 44 87  1  0  0  0
 45 88  1  0  0  0
 45 89  1  0  0  0
 46 90  1  0  0  0
 47 91  1  0  0  0
 48 92  1  0  0  0
 48 93  1  0  0  0
 50 94  1  0  0  0
 50 95  1  0  0  0
M  END
$$$$
