1uwt_ligand
  -I-interpret- 

 25 25  0  0  0  0  0  0  0  0999 V2000
  119.3410   38.7040   64.7170 C   0  0  0  0  0
  118.7030   38.8310   65.8720 N   0  0  0  0  0
  118.8190   37.5970   63.7760 C   0  0  0  0  0
  120.3920   39.5900   64.4340 N   0  0  0  0  0
  118.8930   40.0260   66.5570 O   0  0  0  0  0
  118.7250   36.3890   64.4950 O   0  0  0  0  0
  119.8420   37.4220   62.6450 C   0  0  0  0  0
  119.2140   36.7030   61.6040 O   0  0  0  0  0
  120.4200   38.7570   62.0970 C   0  0  0  0  0
  119.3120   39.5740   61.7840 O   0  0  0  0  0
  121.2460   39.3860   63.2530 C   0  0  0  0  0
  121.9620   40.7360   62.9390 C   0  0  0  0  0
  121.0770   41.8230   63.1270 O   0  0  0  0  0
  117.8403   37.8624   63.3763 H   0  0  0  0  0
  120.5655   40.3824   65.0524 H   0  0  0  0  0
  118.3881   40.0094   67.3733 H   0  0  0  0  0
  118.0868   36.4894   65.2050 H   0  0  0  0  0
  120.6981   36.8850   63.0535 H   0  0  0  0  0
  118.8607   35.8811   61.9522 H   0  0  0  0  0
  121.0494   38.6314   61.2160 H   0  0  0  0  0
  119.6227   40.4146   61.4398 H   0  0  0  0  0
  122.0389   38.6584   63.4263 H   0  0  0  0  0
  122.2951   40.7266   61.9012 H   0  0  0  0  0
  122.8113   40.8509   63.6125 H   0  0  0  0  0
  121.5338   42.6439   62.9296 H   0  0  0  0  0
  1  2  2  0  0  0
  1  3  1  0  0  0
  1  4  1  0  0  0
  2  5  1  0  0  0
  3  6  1  0  0  0
  3  7  1  0  0  0
  4 11  1  0  0  0
  7  8  1  0  0  0
  7  9  1  0  0  0
  9 10  1  0  0  0
  9 11  1  0  0  0
 11 12  1  0  0  0
 12 13  1  0  0  0
  3 14  1  0  0  0
  4 15  1  0  0  0
  5 16  1  0  0  0
  6 17  1  0  0  0
  7 18  1  0  0  0
  8 19  1  0  0  0
  9 20  1  0  0  0
 10 21  1  0  0  0
 11 22  1  0  0  0
 12 23  1  0  0  0
 12 24  1  0  0  0
 13 25  1  0  0  0
M  END
$$$$
