### 
### Created by X-TOOL on Mon Sep 10 21:12:51 2018
### 

@<TRIPOS>MOLECULE
1uwt_ligand
   25    25     1     0     0
SMALL
GAST_HUCK


@<TRIPOS>ATOM
      1 C1        119.3410   38.7040   64.7170 C.2       1 GTL         0.1322
      2 N1        118.7030   38.8310   65.8720 N.2       1 GTL        -0.2068
      3 C2        118.8190   37.5970   63.7760 C.3       1 GTL         0.1503
      4 N5        120.3920   39.5900   64.4340 N.pl3     1 GTL        -0.2990
      5 O7        118.8930   40.0260   66.5570 O.3       1 GTL        -0.3046
      6 O2        118.7250   36.3890   64.4950 O.3       1 GTL        -0.3713
      7 C3        119.8420   37.4220   62.6450 C.3       1 GTL         0.1233
      8 O3        119.2140   36.7030   61.6040 O.3       1 GTL        -0.3841
      9 C4        120.4200   38.7570   62.0970 C.3       1 GTL         0.1104
     10 O4        119.3120   39.5740   61.7840 O.3       1 GTL        -0.3866
     11 C5        121.2460   39.3860   63.2530 C.3       1 GTL         0.0898
     12 C6        121.9620   40.7360   62.9390 C.3       1 GTL         0.0694
     13 O6        121.0770   41.8230   63.1270 O.3       1 GTL        -0.3927
     14 H1        117.8362   37.8731   63.3664 H         1 GTL         0.0843
     15 H2        120.5672   40.3902   65.0585 H         1 GTL         0.1812
     16 H3        118.5992   40.7498   66.0163 H         1 GTL         0.2523
     17 H4        119.5833   36.1507   64.8251 H         1 GTL         0.2137
     18 H5        120.6828   36.8282   63.0329 H         1 GTL         0.0673
     19 H6        119.8282   36.5811   60.8896 H         1 GTL         0.2103
     20 H7        121.0493   38.5934   61.2097 H         1 GTL         0.0646
     21 H8        119.6195   40.4059   61.4433 H         1 GTL         0.2100
     22 H9        122.0287   38.6583   63.5134 H         1 GTL         0.0603
     23 H10       122.3080   40.7277   61.8949 H         1 GTL         0.0581
     24 H11       122.8254   40.8523   63.6105 H         1 GTL         0.0581
     25 H12       120.3312   41.7268   62.5464 H         1 GTL         0.2095
@<TRIPOS>BOND
     1    1    2 2  
     2    1    3 1  
     3    1    4 1  
     4    2    5 1  
     5    3    6 1  
     6    3    7 1  
     7    4   11 1  
     8    7    8 1  
     9    7    9 1  
    10    9   10 1  
    11    9   11 1  
    12   11   12 1  
    13   12   13 1  
    14    3   14 1  
    15    4   15 1  
    16    5   16 1  
    17    6   17 1  
    18    7   18 1  
    19    8   19 1  
    20    9   20 1  
    21   10   21 1  
    22   11   22 1  
    23   12   23 1  
    24   12   24 1  
    25   13   25 1  
@<TRIPOS>SUBSTRUCTURE
     1 GTL         1

