### 
### Created by X-TOOL on Mon Sep 10 21:12:53 2018
### 

@<TRIPOS>MOLECULE
2bqv_ligand
   84    87     1     0     0
SMALL
GAST_HUCK


@<TRIPOS>ATOM
      1 C23        11.2050   23.5680    3.2120 C.ar      1 A1A        -0.0411
      2 C24        10.9580   24.6870    2.3360 C.ar      1 A1A        -0.0604
      3 C25         9.6500   24.9000    1.7910 C.ar      1 A1A        -0.0686
      4 C26         8.5800   24.0050    2.1130 C.ar      1 A1A        -0.0687
      5 C27         8.8150   22.8880    2.9790 C.ar      1 A1A        -0.0686
      6 C28        10.1190   22.6700    3.5280 C.ar      1 A1A        -0.0604
      7 C33        16.3190   22.5150    8.1320 C.ar      1 A1A         0.0022
      8 C34        17.6310   22.0230    8.4580 C.ar      1 A1A        -0.0553
      9 C35        17.7960   20.9570    9.3990 C.ar      1 A1A        -0.0684
     10 C36        16.6460   20.3730   10.0250 C.ar      1 A1A        -0.0687
     11 C37        15.3320   20.8570    9.7080 C.ar      1 A1A        -0.0684
     12 C38        15.1680   21.9240    8.7650 C.ar      1 A1A        -0.0553
     13 C32        16.2050   23.6620    7.1150 C.3       1 A1A         0.0266
     14 C7         19.9980   18.2300    7.3330 C.3       1 A1A         0.0663
     15 C4         13.9810   23.7580    6.1230 C.3       1 A1A         0.0334
     16 O3         19.1030   20.1170    5.4440 O.2       1 A1A        -0.3774
     17 N1         17.0530   19.1780    5.4240 N.am      1 A1A        -0.2408
     18 C22        12.6090   23.3500    3.8330 C.3       1 A1A         0.0222
     19 O6         13.4140   25.5240    4.5570 O.3       1 A1A        -0.3781
     20 O8         18.6870   18.2930    6.7790 O.3       1 A1A        -0.2672
     21 C10        11.6220   24.5080    5.9080 C.2       1 A1A         0.2370
     22 O11        11.2890   23.6920    6.7900 O.2       1 A1A        -0.3412
     23 N12        10.8690   25.5990    5.6880 N.am      1 A1A        -0.2677
     24 C51         9.6490   25.9060    6.4570 C.3       1 A1A         0.1008
     25 C52         9.8750   26.7030    7.7130 C.ar      1 A1A        -0.0131
     26 C57         8.7640   27.5470    7.9310 C.ar      1 A1A        -0.0360
     27 C53        10.9930   26.6900    8.6100 C.ar      1 A1A        -0.0646
     28 C54        10.9550   27.5670    9.7440 C.ar      1 A1A        -0.0754
     29 C55         9.8200   28.4300    9.9660 C.ar      1 A1A        -0.0755
     30 C59         8.5610   26.7340    5.6850 C.3       1 A1A         0.0952
     31 O60         9.1140   27.8490    4.9750 O.3       1 A1A        -0.3856
     32 C30        18.3210   19.2340    5.8690 C.2       1 A1A         0.3216
     33 C56         8.7080   28.4260    9.0550 C.ar      1 A1A        -0.0667
     34 C58         7.7270   27.3590    6.8320 C.3       1 A1A         0.0085
     35 C41        16.4460   20.0700    4.4420 C.3       1 A1A         0.1394
     36 C42        15.8860   19.1680    3.2980 C.3       1 A1A        -0.0061
     37 C43        16.9700   18.2640    2.6470 C.3       1 A1A        -0.0584
     38 C1         12.9340   24.2830    5.0580 C.3       1 A1A         0.1955
     39 C44        15.2330   19.9660    2.1590 C.3       1 A1A        -0.0584
     40 C45        15.4440   21.0340    5.1590 C.2       1 A1A         0.2390
     41 N24        15.4020   23.4710    5.8620 N.4       1 A1A         0.3814
     42 O46        14.4470   20.5980    5.7490 O.2       1 A1A        -0.3898
     43 N47        15.7440   22.3610    5.0620 N.am      1 A1A        -0.2495
     44 H1         11.7640   25.3686    2.0893 H         1 A1A         0.0557
     45 H2          9.4700   25.7420    1.1324 H         1 A1A         0.0599
     46 H3          7.5913   24.1725    1.7013 H         1 A1A         0.0559
     47 H4          8.0054   22.2080    3.2185 H         1 A1A         0.0599
     48 H5         10.2924   21.8255    4.1851 H         1 A1A         0.0557
     49 H6         18.5023   22.4634    7.9869 H         1 A1A         0.0558
     50 H7         18.7884   20.5921    9.6378 H         1 A1A         0.0599
     51 H8         16.7686   19.5657   10.7379 H         1 A1A         0.0559
     52 H9         14.4631   20.4151   10.1822 H         1 A1A         0.0599
     53 H10        14.1747   22.2873    8.5275 H         1 A1A         0.0558
     54 H11        17.2292   23.9128    6.8017 H         1 A1A         0.0988
     55 H12        15.7647   24.5176    7.6480 H         1 A1A         0.0988
     56 H13        20.0566   17.3909    8.0418 H         1 A1A         0.0575
     57 H14        20.2194   19.1704    7.8590 H         1 A1A         0.0575
     58 H15        20.7303   18.0800    6.5260 H         1 A1A         0.0575
     59 H16        13.5601   22.8155    6.5031 H         1 A1A         0.0838
     60 H17        13.9799   24.5101    6.9257 H         1 A1A         0.0838
     61 H18        16.4717   18.4573    5.8017 H         1 A1A         0.1899
     62 H19        13.3620   23.5335    3.0524 H         1 A1A         0.0443
     63 H20        12.6770   22.3050    4.1698 H         1 A1A         0.0443
     64 H21        12.7471   25.9228    4.0103 H         1 A1A         0.2083
     65 H22        11.1497   26.2335    4.9678 H         1 A1A         0.1887
     66 H23         9.2114   24.9361    6.7359 H         1 A1A         0.0734
     67 H24        11.8410   26.0374    8.4365 H         1 A1A         0.0538
     68 H25        11.7858   27.5818   10.4402 H         1 A1A         0.0541
     69 H26         9.8058   29.0874   10.8278 H         1 A1A         0.0541
     70 H27         7.9659   26.0946    5.0164 H         1 A1A         0.0659
     71 H28         9.7469   27.5359    4.3395 H         1 A1A         0.2103
     72 H29         7.8521   29.0713    9.2165 H         1 A1A         0.0537
     73 H30         7.2919   28.3222    6.5274 H         1 A1A         0.0439
     74 H31         6.9243   26.6798    7.1551 H         1 A1A         0.0439
     75 H32        17.2321   20.7017    4.0027 H         1 A1A         0.0803
     76 H33        15.1197   18.5188    3.7466 H         1 A1A         0.0342
     77 H34        16.5120   17.6567    1.8524 H         1 A1A         0.0234
     78 H35        17.4026   17.6017    3.4114 H         1 A1A         0.0234
     79 H36        17.7625   18.8938    2.2165 H         1 A1A         0.0234
     80 H37        14.4545   20.6243    2.5720 H         1 A1A         0.0234
     81 H38        14.7801   19.2707    1.4369 H         1 A1A         0.0234
     82 H39        15.9969   20.5744    1.6527 H         1 A1A         0.0234
     83 H40        15.6863   24.2422    5.2784 H         1 A1A         0.2320
     84 H41        16.3150   22.5905    4.2738 H         1 A1A         0.2383
@<TRIPOS>BOND
     1    1    2 ar 
     2    1    6 ar 
     3   18    1 1  
     4    2    3 ar 
     5    3    4 ar 
     6    5    4 ar 
     7    6    5 ar 
     8    7    8 ar 
     9    7   12 ar 
    10   13    7 1  
    11    8    9 ar 
    12    9   10 ar 
    13   11   10 ar 
    14   12   11 ar 
    15   41   13 1  
    16   20   14 1  
    17   15   38 1  
    18   41   15 1  
    19   32   16 2  
    20   17   32 am 
    21   35   17 1  
    22   38   18 1  
    23   38   19 1  
    24   32   20 1  
    25   21   22 2  
    26   21   23 am 
    27   38   21 1  
    28   23   24 1  
    29   24   25 1  
    30   24   30 1  
    31   25   26 ar 
    32   25   27 ar 
    33   26   33 ar 
    34   34   26 1  
    35   27   28 ar 
    36   28   29 ar 
    37   33   29 ar 
    38   30   31 1  
    39   30   34 1  
    40   35   36 1  
    41   40   35 1  
    42   36   37 1  
    43   36   39 1  
    44   40   42 2  
    45   43   40 am 
    46   41   43 1  
    47    2   44 1  
    48    3   45 1  
    49    4   46 1  
    50    5   47 1  
    51    6   48 1  
    52    8   49 1  
    53    9   50 1  
    54   10   51 1  
    55   11   52 1  
    56   12   53 1  
    57   13   54 1  
    58   13   55 1  
    59   14   56 1  
    60   14   57 1  
    61   14   58 1  
    62   15   59 1  
    63   15   60 1  
    64   17   61 1  
    65   18   62 1  
    66   18   63 1  
    67   19   64 1  
    68   23   65 1  
    69   24   66 1  
    70   27   67 1  
    71   28   68 1  
    72   29   69 1  
    73   30   70 1  
    74   31   71 1  
    75   33   72 1  
    76   34   73 1  
    77   34   74 1  
    78   35   75 1  
    79   36   76 1  
    80   37   77 1  
    81   37   78 1  
    82   37   79 1  
    83   39   80 1  
    84   39   81 1  
    85   39   82 1  
    86   41   83 1  
    87   43   84 1  
@<TRIPOS>SUBSTRUCTURE
     1 A1A         1

