2bqv_ligand
  -I-interpret- 

 84 87  0  0  0  0  0  0  0  0999 V2000
   11.2050   23.5680    3.2120 C   0  0  0  0  0
   10.9580   24.6870    2.3360 C   0  0  0  0  0
    9.6500   24.9000    1.7910 C   0  0  0  0  0
    8.5800   24.0050    2.1130 C   0  0  0  0  0
    8.8150   22.8880    2.9790 C   0  0  0  0  0
   10.1190   22.6700    3.5280 C   0  0  0  0  0
   16.3190   22.5150    8.1320 C   0  0  0  0  0
   17.6310   22.0230    8.4580 C   0  0  0  0  0
   17.7960   20.9570    9.3990 C   0  0  0  0  0
   16.6460   20.3730   10.0250 C   0  0  0  0  0
   15.3320   20.8570    9.7080 C   0  0  0  0  0
   15.1680   21.9240    8.7650 C   0  0  0  0  0
   16.2050   23.6620    7.1150 C   0  0  0  0  0
   19.9980   18.2300    7.3330 C   0  0  0  0  0
   13.9810   23.7580    6.1230 C   0  0  0  0  0
   19.1030   20.1170    5.4440 O   0  0  0  0  0
   17.0530   19.1780    5.4240 N   0  0  0  0  0
   12.6090   23.3500    3.8330 C   0  0  0  0  0
   13.4140   25.5240    4.5570 O   0  0  0  0  0
   18.6870   18.2930    6.7790 O   0  0  0  0  0
   11.6220   24.5080    5.9080 C   0  0  0  0  0
   11.2890   23.6920    6.7900 O   0  0  0  0  0
   10.8690   25.5990    5.6880 N   0  0  0  0  0
    9.6490   25.9060    6.4570 C   0  0  0  0  0
    9.8750   26.7030    7.7130 C   0  0  0  0  0
    8.7640   27.5470    7.9310 C   0  0  0  0  0
   10.9930   26.6900    8.6100 C   0  0  0  0  0
   10.9550   27.5670    9.7440 C   0  0  0  0  0
    9.8200   28.4300    9.9660 C   0  0  0  0  0
    8.5610   26.7340    5.6850 C   0  0  0  0  0
    9.1140   27.8490    4.9750 O   0  0  0  0  0
   18.3210   19.2340    5.8690 C   0  0  0  0  0
    8.7080   28.4260    9.0550 C   0  0  0  0  0
    7.7270   27.3590    6.8320 C   0  0  0  0  0
   16.4460   20.0700    4.4420 C   0  0  0  0  0
   15.8860   19.1680    3.2980 C   0  0  0  0  0
   16.9700   18.2640    2.6470 C   0  0  0  0  0
   12.9340   24.2830    5.0580 C   0  0  0  0  0
   15.2330   19.9660    2.1590 C   0  0  0  0  0
   15.4440   21.0340    5.1590 C   0  0  0  0  0
   15.4020   23.4710    5.8620 N   0  3  0  0  0
   14.4470   20.5980    5.7490 O   0  0  0  0  0
   15.7440   22.3610    5.0620 N   0  0  0  0  0
   11.7684   25.3724    2.0879 H   0  0  0  0  0
    9.4690   25.7466    1.1288 H   0  0  0  0  0
    7.5858   24.1735    1.6990 H   0  0  0  0  0
    8.0010   22.2043    3.2198 H   0  0  0  0  0
   10.2933   21.8208    4.1887 H   0  0  0  0  0
   18.5071   22.4658    7.9843 H   0  0  0  0  0
   18.7939   20.5900    9.6391 H   0  0  0  0  0
   16.7693   19.5612   10.7419 H   0  0  0  0  0
   14.4583   20.4127   10.1849 H   0  0  0  0  0
   14.1692   22.2893    8.5262 H   0  0  0  0  0
   17.2251   23.8205    6.7652 H   0  0  0  0  0
   15.6874   24.4556    7.6539 H   0  0  0  0  0
   20.7226   18.0814    6.5324 H   0  0  0  0  0
   20.2162   19.1623    7.8538 H   0  0  0  0  0
   20.0548   17.3982    8.0351 H   0  0  0  0  0
   13.5890   22.7685    6.3580 H   0  0  0  0  0
   14.0424   24.5984    6.8144 H   0  0  0  0  0
   16.4601   18.4429    5.8093 H   0  0  0  0  0
   13.3396   23.5774    3.0567 H   0  0  0  0  0
   12.6403   22.3232    4.1974 H   0  0  0  0  0
   12.7959   25.8659    3.9069 H   0  0  0  0  0
   11.1553   26.2461    4.9534 H   0  0  0  0  0
    9.3091   24.8925    6.6701 H   0  0  0  0  0
   11.8457   26.0338    8.4356 H   0  0  0  0  0
   11.7904   27.5818   10.4440 H   0  0  0  0  0
    9.8057   29.0911   10.8325 H   0  0  0  0  0
    8.0364   26.0994    4.9707 H   0  0  0  0  0
    8.4103   28.3196    4.5223 H   0  0  0  0  0
    7.8474   29.0749    9.2174 H   0  0  0  0  0
    7.2365   28.2891    6.5448 H   0  0  0  0  0
    6.8886   26.7339    7.1392 H   0  0  0  0  0
   17.1449   20.7568    3.9645 H   0  0  0  0  0
   15.1384   18.5571    3.8040 H   0  0  0  0  0
   17.7546   18.8892    2.2208 H   0  0  0  0  0
   17.3978   17.6083    3.4054 H   0  0  0  0  0
   16.5150   17.6628    1.8598 H   0  0  0  0  0
   14.4013   20.5484    2.5555 H   0  0  0  0  0
   15.9703   20.6367    1.7179 H   0  0  0  0  0
   14.8657   19.2770    1.3984 H   0  0  0  0  0
   15.6866   24.1785    5.1847 H   0  0  0  0  0
   16.3264   22.5951    4.2580 H   0  0  0  0  0
  1  2  4  0  0  0
  1  6  4  0  0  0
 18  1  1  0  0  0
  2  3  4  0  0  0
  3  4  4  0  0  0
  5  4  4  0  0  0
  6  5  4  0  0  0
  7  8  4  0  0  0
  7 12  4  0  0  0
 13  7  1  0  0  0
  8  9  4  0  0  0
  9 10  4  0  0  0
 11 10  4  0  0  0
 12 11  4  0  0  0
 41 13  1  0  0  0
 20 14  1  0  0  0
 15 38  1  0  0  0
 41 15  1  0  0  0
 32 16  2  0  0  0
 17 32  1  0  0  0
 35 17  1  0  0  0
 38 18  1  0  0  0
 38 19  1  0  0  0
 32 20  1  0  0  0
 21 22  2  0  0  0
 21 23  1  0  0  0
 38 21  1  0  0  0
 23 24  1  0  0  0
 24 25  1  0  0  0
 24 30  1  0  0  0
 25 26  4  0  0  0
 25 27  4  0  0  0
 26 33  4  0  0  0
 34 26  1  0  0  0
 27 28  4  0  0  0
 28 29  4  0  0  0
 33 29  4  0  0  0
 30 31  1  0  0  0
 30 34  1  0  0  0
 35 36  1  0  0  0
 40 35  1  0  0  0
 36 37  1  0  0  0
 36 39  1  0  0  0
 40 42  2  0  0  0
 43 40  1  0  0  0
 41 43  1  0  0  0
  2 44  1  0  0  0
  3 45  1  0  0  0
  4 46  1  0  0  0
  5 47  1  0  0  0
  6 48  1  0  0  0
  8 49  1  0  0  0
  9 50  1  0  0  0
 10 51  1  0  0  0
 11 52  1  0  0  0
 12 53  1  0  0  0
 13 54  1  0  0  0
 13 55  1  0  0  0
 14 56  1  0  0  0
 14 57  1  0  0  0
 14 58  1  0  0  0
 15 59  1  0  0  0
 15 60  1  0  0  0
 17 61  1  0  0  0
 18 62  1  0  0  0
 18 63  1  0  0  0
 19 64  1  0  0  0
 23 65  1  0  0  0
 24 66  1  0  0  0
 27 67  1  0  0  0
 28 68  1  0  0  0
 29 69  1  0  0  0
 30 70  1  0  0  0
 31 71  1  0  0  0
 33 72  1  0  0  0
 34 73  1  0  0  0
 34 74  1  0  0  0
 35 75  1  0  0  0
 36 76  1  0  0  0
 37 77  1  0  0  0
 37 78  1  0  0  0
 37 79  1  0  0  0
 39 80  1  0  0  0
 39 81  1  0  0  0
 39 82  1  0  0  0
 41 83  1  0  0  0
 43 84  1  0  0  0
M  END
$$$$
