### 
### Created by X-TOOL on Mon Sep 10 21:13:11 2018
### 

@<TRIPOS>MOLECULE
4daf_ligand
   26    27     1     0     0
SMALL
GAST_HUCK


@<TRIPOS>ATOM
      1 O1        -14.5690   27.7820    3.8590 O.2       1 0J4        -0.3778
      2 C4        -14.7450   26.3930    4.0550 C.2       1 0J4         0.2492
      3 N1        -15.4440   25.6880    3.1510 N.am      1 0J4        -0.1720
      4 C1        -15.6050   24.3670    3.2500 C.2       1 0J4         0.2439
      5 N5        -16.3480   23.6490    2.2580 N.pl3     1 0J4        -0.2740
      6 N2        -15.0880   23.7030    4.2910 N.2       1 0J4        -0.2829
      7 C2        -14.3810   24.3350    5.2430 C.ar      1 0J4         0.0518
      8 C3        -14.1870   25.7100    5.1490 C.ar      1 0J4         0.1335
      9 C6        -13.4260   26.3190    6.2000 C.ar      1 0J4         0.1824
     10 O2        -13.2020   27.6970    6.2380 O.3       1 0J4        -0.2964
     11 N3        -13.8790   23.6340    6.2350 N.ar      1 0J4        -0.3246
     12 N4        -13.1740   24.1900    7.2060 N.ar      1 0J4        -0.2756
     13 C5        -12.9330   25.4980    7.2220 C.ar      1 0J4         0.1135
     14 C7        -12.1280   26.1040    8.3850 C.3       1 0J4         0.0749
     15 C10       -10.8450   26.7170    7.8530 C.3       1 0J4        -0.0349
     16 C8        -12.7820   27.1840    9.1790 C.2       1 0J4         0.0562
     17 O4        -13.8790   26.9720    9.7510 O.co2     1 0J4        -0.5650
     18 O3        -12.3420   28.3310    9.1300 O.co2     1 0J4        -0.5650
     19 H1        -15.8577   26.1688    2.3779 H         1 0J4         0.2529
     20 H2        -16.4676   22.6294    2.3419 H         1 0J4         0.1941
     21 H3        -16.7627   24.1523    1.4607 H         1 0J4         0.1941
     22 H4        -12.6812   27.9111    7.0032 H         1 0J4         0.2670
     23 H5        -11.8832   25.2806    9.0720 H         1 0J4         0.0706
     24 H6        -10.3042   25.9713    7.2518 H         1 0J4         0.0280
     25 H7        -10.2141   27.0360    8.6957 H         1 0J4         0.0280
     26 H8        -11.0871   27.5878    7.2260 H         1 0J4         0.0280
@<TRIPOS>BOND
     1    1    2 2  
     2    2    3 am 
     3    2    8 1  
     4    3    4 am 
     5    4    5 1  
     6    4    6 2  
     7    6    7 1  
     8    7    8 ar 
     9    7   11 ar 
    10    8    9 ar 
    11    9   10 1  
    12    9   13 ar 
    13   11   12 ar 
    14   12   13 ar 
    15   13   14 1  
    16   14   15 1  
    17   14   16 1  
    18   16   17 ar 
    19   16   18 ar 
    20    3   19 1  
    21    5   20 1  
    22    5   21 1  
    23   10   22 1  
    24   14   23 1  
    25   15   24 1  
    26   15   25 1  
    27   15   26 1  
@<TRIPOS>SUBSTRUCTURE
     1 0J4         1

