1qkt_ligand
  -I-interpret- 

 44 47  0  0  0  0  0  0  0  0999 V2000
    0.8670   53.1380  165.0150 C   0  0  0  0  0
    2.2480   53.1920  164.7900 C   0  0  0  0  0
    3.0360   52.0260  164.9340 C   0  0  0  0  0
    4.3950   52.1060  164.7050 O   0  0  0  0  0
    2.4410   50.7930  165.3090 C   0  0  0  0  0
    1.0210   50.7210  165.5500 C   0  0  0  0  0
    0.3830   49.3850  165.9720 C   0  0  0  0  0
   -1.1480   49.4320  166.2430 C   0  0  0  0  0
   -1.8940   50.4480  165.3740 C   0  0  0  0  0
   -1.2990   51.8780  165.6350 C   0  0  0  0  0
    0.2190   51.9220  165.3920 C   0  0  0  0  0
   -2.0700   52.8890  164.7620 C   0  0  0  0  0
   -3.5920   52.8930  164.9630 C   0  0  0  0  0
   -4.2090   51.5020  164.7630 C   0  0  0  0  0
   -3.4470   50.4920  165.6850 C   0  0  0  0  0
   -4.3350   49.2580  165.5460 C   0  0  0  0  0
   -5.7850   49.8370  165.7130 C   0  0  0  0  0
   -5.6600   51.3340  165.3010 C   0  0  0  0  0
   -6.7310   51.6750  164.3560 O   0  0  0  0  0
   -4.1860   51.1040  163.2410 C   0  0  0  0  0
    0.2728   54.0445  164.8999 H   0  0  0  0  0
    2.7164   54.1336  164.5035 H   0  0  0  0  0
    4.7926   51.2427  164.8404 H   0  0  0  0  0
    3.0576   49.9004  165.4148 H   0  0  0  0  0
    0.8563   49.0972  166.9108 H   0  0  0  0  0
    0.5308   48.6939  165.1421 H   0  0  0  0  0
   -1.2867   49.7275  167.2830 H   0  0  0  0  0
   -1.5510   48.4460  166.0116 H   0  0  0  0  0
   -1.7667   50.1415  164.3358 H   0  0  0  0  0
   -1.4266   52.1447  166.6841 H   0  0  0  0  0
   -1.8907   52.6089  163.7240 H   0  0  0  0  0
   -1.7135   53.8807  165.0403 H   0  0  0  0  0
   -4.0289   53.5662  164.2255 H   0  0  0  0  0
   -3.7975   53.2105  165.9853 H   0  0  0  0  0
   -3.3402   50.7229  166.7449 H   0  0  0  0  0
   -4.1027   48.4884  166.2821 H   0  0  0  0  0
   -4.1947   48.7446  164.5947 H   0  0  0  0  0
   -6.1540   49.7243  166.7324 H   0  0  0  0  0
   -6.5100   49.3041  165.0978 H   0  0  0  0  0
   -5.7989   52.0374  166.1220 H   0  0  0  0  0
   -7.5830   51.5398  164.7773 H   0  0  0  0  0
   -4.7592   51.8325  162.6676 H   0  0  0  0  0
   -3.1555   51.0898  162.8860 H   0  0  0  0  0
   -4.6274   50.1149  163.1187 H   0  0  0  0  0
  1  2  4  0  0  0
  1 11  4  0  0  0
  2  3  4  0  0  0
  3  4  1  0  0  0
  3  5  4  0  0  0
  5  6  4  0  0  0
  6  7  1  0  0  0
  6 11  4  0  0  0
  7  8  1  0  0  0
  8  9  1  0  0  0
  9 10  1  0  0  0
  9 15  1  0  0  0
 10 11  1  0  0  0
 10 12  1  0  0  0
 12 13  1  0  0  0
 13 14  1  0  0  0
 14 15  1  0  0  0
 14 18  1  0  0  0
 14 20  1  0  0  0
 15 16  1  0  0  0
 16 17  1  0  0  0
 17 18  1  0  0  0
 18 19  1  0  0  0
  1 21  1  0  0  0
  2 22  1  0  0  0
  4 23  1  0  0  0
  5 24  1  0  0  0
  7 25  1  0  0  0
  7 26  1  0  0  0
  8 27  1  0  0  0
  8 28  1  0  0  0
  9 29  1  0  0  0
 10 30  1  0  0  0
 12 31  1  0  0  0
 12 32  1  0  0  0
 13 33  1  0  0  0
 13 34  1  0  0  0
 15 35  1  0  0  0
 16 36  1  0  0  0
 16 37  1  0  0  0
 17 38  1  0  0  0
 17 39  1  0  0  0
 18 40  1  0  0  0
 19 41  1  0  0  0
 20 42  1  0  0  0
 20 43  1  0  0  0
 20 44  1  0  0  0
M  END
$$$$
