### 
### Created by X-TOOL on Mon Sep 10 21:12:47 2018
### 

@<TRIPOS>MOLECULE
1qkt_ligand
   44    47     1     0     0
SMALL
GAST_HUCK


@<TRIPOS>ATOM
      1 C1          0.8670   53.1380  165.0150 C.ar      1 EST        -0.0749
      2 C2          2.2480   53.1920  164.7900 C.ar      1 EST        -0.0468
      3 C3          3.0360   52.0260  164.9340 C.ar      1 EST         0.0739
      4 O3          4.3950   52.1060  164.7050 O.3       1 EST        -0.3393
      5 C4          2.4410   50.7930  165.3090 C.ar      1 EST        -0.0385
      6 C5          1.0210   50.7210  165.5500 C.ar      1 EST        -0.0491
      7 C6          0.3830   49.3850  165.9720 C.3       1 EST        -0.0236
      8 C7         -1.1480   49.4320  166.2430 C.3       1 EST        -0.0396
      9 C8         -1.8940   50.4480  165.3740 C.3       1 EST        -0.0259
     10 C9         -1.2990   51.8780  165.6350 C.3       1 EST        -0.0116
     11 C10         0.2190   51.9220  165.3920 C.ar      1 EST        -0.0484
     12 C11        -2.0700   52.8890  164.7620 C.3       1 EST        -0.0421
     13 C12        -3.5920   52.8930  164.9630 C.3       1 EST        -0.0433
     14 C13        -4.2090   51.5020  164.7630 C.3       1 EST        -0.0028
     15 C14        -3.4470   50.4920  165.6850 C.3       1 EST        -0.0285
     16 C15        -4.3350   49.2580  165.5460 C.3       1 EST        -0.0469
     17 C16        -5.7850   49.8370  165.7130 C.3       1 EST        -0.0261
     18 C17        -5.6600   51.3340  165.3010 C.3       1 EST         0.0609
     19 O17        -6.7310   51.6750  164.3560 O.3       1 EST        -0.3912
     20 C18        -4.1860   51.1040  163.2410 C.3       1 EST        -0.0569
     21 H1          0.2761   54.0396  164.9005 H         1 EST         0.0511
     22 H2          2.7139   54.1284  164.5051 H         1 EST         0.0468
     23 H3          4.5483   52.3898  163.8115 H         1 EST         0.2457
     24 H4          3.0542   49.9053  165.4142 H         1 EST         0.0462
     25 H5          0.8803   49.0476  166.8933 H         1 EST         0.0410
     26 H6          0.5631   48.6546  165.1695 H         1 EST         0.0410
     27 H7         -1.3062   49.6955  167.2992 H         1 EST         0.0290
     28 H8         -1.5665   48.4337  166.0474 H         1 EST         0.0290
     29 H9         -1.7520   50.1782  164.3171 H         1 EST         0.0326
     30 H10        -1.4711   52.1359  166.6904 H         1 EST         0.0429
     31 H11        -1.8660   52.6539  163.7070 H         1 EST         0.0286
     32 H12        -1.6929   53.8962  164.9928 H         1 EST         0.0286
     33 H13        -4.0428   53.5874  164.2388 H         1 EST         0.0273
     34 H14        -3.8131   53.2345  165.9850 H         1 EST         0.0273
     35 H15        -3.5198   50.8288  166.7296 H         1 EST         0.0311
     36 H16        -4.1119   48.5212  166.3317 H         1 EST         0.0269
     37 H17        -4.2086   48.7905  164.5583 H         1 EST         0.0269
     38 H18        -6.1208   49.7482  166.7567 H         1 EST         0.0290
     39 H19        -6.4916   49.3107  165.0544 H         1 EST         0.0290
     40 H20        -5.7793   51.9741  166.1876 H         1 EST         0.0599
     41 H21        -7.5742   51.5297  164.7688 H         1 EST         0.2098
     42 H22        -3.1651   51.2182  162.8476 H         1 EST         0.0236
     43 H23        -4.8702   51.7580  162.6806 H         1 EST         0.0236
     44 H24        -4.5064   50.0575  163.1307 H         1 EST         0.0236
@<TRIPOS>BOND
     1    1    2 ar 
     2    1   11 ar 
     3    2    3 ar 
     4    3    4 1  
     5    3    5 ar 
     6    5    6 ar 
     7    6    7 1  
     8    6   11 ar 
     9    7    8 1  
    10    8    9 1  
    11    9   10 1  
    12    9   15 1  
    13   10   11 1  
    14   10   12 1  
    15   12   13 1  
    16   13   14 1  
    17   14   15 1  
    18   14   18 1  
    19   14   20 1  
    20   15   16 1  
    21   16   17 1  
    22   17   18 1  
    23   18   19 1  
    24    1   21 1  
    25    2   22 1  
    26    4   23 1  
    27    5   24 1  
    28    7   25 1  
    29    7   26 1  
    30    8   27 1  
    31    8   28 1  
    32    9   29 1  
    33   10   30 1  
    34   12   31 1  
    35   12   32 1  
    36   13   33 1  
    37   13   34 1  
    38   15   35 1  
    39   16   36 1  
    40   16   37 1  
    41   17   38 1  
    42   17   39 1  
    43   18   40 1  
    44   19   41 1  
    45   20   42 1  
    46   20   43 1  
    47   20   44 1  
@<TRIPOS>SUBSTRUCTURE
     1 EST         1

