6fag_ligand
  -I-interpret- 

 38 39  0  0  0  0  0  0  0  0999 V2000
   10.0150   34.9520   14.7950 C   0  0  0  0  0
   11.2220   35.4550   14.2720 C   0  0  0  0  0
   11.2360   35.9980   12.9880 C   0  0  0  0  0
   10.0660   36.0420   12.2450 C   0  0  0  0  0
    8.8780   35.5730   12.7770 C   0  0  0  0  0
    8.8420   35.0290   14.0540 C   0  0  0  0  0
   13.6370   34.9960   14.7830 C   0  0  0  0  0
   14.3970   34.7030   15.8840 N   0  0  0  0  0
   14.0190   35.2400   19.5180 C   0  0  0  0  0
   13.2360   34.1500   19.8770 C   0  0  0  0  0
   12.7960   33.2770   18.8980 C   0  0  0  0  0
   13.1400   33.4780   17.5660 C   0  0  0  0  0
   14.8530   35.4740   21.9300 O   0  0  0  0  0
    8.9330   33.9920   16.7020 C   0  0  0  0  0
   10.1280   34.3480   16.0170 O   0  0  0  0  0
   12.3640   35.3920   15.1120 N   0  0  0  0  0
   14.0550   34.9070   13.6300 O   0  0  0  0  0
   13.9510   34.5660   17.2150 C   0  0  0  0  0
   14.3750   35.4640   18.1960 C   0  0  0  0  0
   12.9780   32.4740   16.6630 O   0  0  0  0  0
   14.6350   36.3010   20.7870 S   0  0  0  0  0
   13.7390   37.4160   20.9100 O   0  0  0  0  0
   16.0660   36.9060   20.3350 N   0  0  0  0  0
   12.1642   36.3869   12.5693 H   0  0  0  0  0
   10.0824   36.4492   11.2341 H   0  0  0  0  0
    7.9624   35.6311   12.1885 H   0  0  0  0  0
    7.9027   34.6659   14.4712 H   0  0  0  0  0
   15.3954   34.5691   15.7238 H   0  0  0  0  0
   12.9706   33.9840   20.9211 H   0  0  0  0  0
   12.1747   32.4248   19.1732 H   0  0  0  0  0
    8.3390   34.8878   16.8832 H   0  0  0  0  0
    8.3611   33.2923   16.0926 H   0  0  0  0  0
    9.1866   33.5241   17.6532 H   0  0  0  0  0
   12.2215   35.6764   16.0811 H   0  0  0  0  0
   14.9785   36.3308   17.9266 H   0  0  0  0  0
   13.2610   32.7756   15.7966 H   0  0  0  0  0
   16.9091   36.6652   20.8562 H   0  0  0  0  0
   16.1250   37.5282   19.5289 H   0  0  0  0  0
  2  1  4  0  0  0
  1  6  4  0  0  0
  1 15  1  0  0  0
  2  3  4  0  0  0
 16  2  1  0  0  0
  3  4  4  0  0  0
  4  5  4  0  0  0
  6  5  4  0  0  0
  8  7  1  0  0  0
  7 16  1  0  0  0
  7 17  2  0  0  0
 18  8  1  0  0  0
 10  9  4  0  0  0
  9 19  4  0  0  0
  9 21  1  0  0  0
 11 10  4  0  0  0
 12 11  4  0  0  0
 12 18  4  0  0  0
 12 20  1  0  0  0
 21 13  2  0  0  0
 15 14  1  0  0  0
 18 19  4  0  0  0
 21 22  2  0  0  0
 21 23  1  0  0  0
  3 24  1  0  0  0
  4 25  1  0  0  0
  5 26  1  0  0  0
  6 27  1  0  0  0
  8 28  1  0  0  0
 10 29  1  0  0  0
 11 30  1  0  0  0
 14 31  1  0  0  0
 14 32  1  0  0  0
 14 33  1  0  0  0
 16 34  1  0  0  0
 19 35  1  0  0  0
 20 36  1  0  0  0
 23 37  1  0  0  0
 23 38  1  0  0  0
M  END
$$$$
