### 
### Created by X-TOOL on Mon Aug  2 16:13:22 2021
### 

@<TRIPOS>MOLECULE
6fag_ligand
   38    39     1     0     0
SMALL
GAST_HUCK


@<TRIPOS>ATOM
      1 C2         10.0150   34.9520   14.7950 C.ar      1 EON         0.1119
      2 C3         11.2220   35.4550   14.2720 C.ar      1 EON         0.0971
      3 C4         11.2360   35.9980   12.9880 C.ar      1 EON        -0.0495
      4 C5         10.0660   36.0420   12.2450 C.ar      1 EON        -0.0870
      5 C6          8.8780   35.5730   12.7770 C.ar      1 EON        -0.0863
      6 C7          8.8420   35.0290   14.0540 C.ar      1 EON        -0.0463
      7 C9         13.6370   34.9960   14.7830 C.2       1 EON         0.3115
      8 N10        14.3970   34.7030   15.8840 N.am      1 EON        -0.2174
      9 C14        14.0190   35.2400   19.5180 C.ar      1 EON         0.0831
     10 C15        13.2360   34.1500   19.8770 C.ar      1 EON        -0.0599
     11 C16        12.7960   33.2770   18.8980 C.ar      1 EON        -0.0447
     12 C17        13.1400   33.4780   17.5660 C.ar      1 EON         0.1089
     13 O20        14.8530   35.4740   21.9300 O.2       1 EON        -0.1521
     14 C1          8.9330   33.9920   16.7020 C.3       1 EON         0.0562
     15 O1         10.1280   34.3480   16.0170 O.3       1 EON        -0.3276
     16 N8         12.3640   35.3920   15.1120 N.am      1 EON        -0.2174
     17 O11        14.0550   34.9070   13.6300 O.2       1 EON        -0.3826
     18 C12        13.9510   34.5660   17.2150 C.ar      1 EON         0.0987
     19 C13        14.3750   35.4640   18.1960 C.ar      1 EON        -0.0231
     20 O18        12.9780   32.4740   16.6630 O.3       1 EON        -0.3395
     21 S19        14.6350   36.3010   20.7870 S.o2      1 EON         0.0576
     22 O21        13.7390   37.4160   20.9100 O.2       1 EON        -0.1521
     23 N22        16.0660   36.9060   20.3350 N.am      1 EON        -0.2623
     24 H1         12.1591   36.3848   12.5716 H         1 EON         0.0465
     25 H2         10.0823   36.4470   11.2396 H         1 EON         0.0484
     26 H3          7.9674   35.6308   12.1917 H         1 EON         0.0459
     27 H4          7.9079   34.6679   14.4689 H         1 EON         0.0494
     28 H5         15.3758   34.5718   15.7269 H         1 EON         0.2227
     29 H6         12.9720   33.9849   20.9153 H         1 EON         0.0478
     30 H7         12.1781   32.4295   19.1717 H         1 EON         0.0495
     31 H8          9.1877   33.5197   17.6622 H         1 EON         0.0572
     32 H9          8.3549   33.2858   16.0880 H         1 EON         0.0572
     33 H10         8.3326   34.8952   16.8855 H         1 EON         0.0572
     34 H11        12.2243   35.6708   16.0621 H         1 EON         0.2227
     35 H12        14.9752   36.3260   17.9281 H         1 EON         0.0484
     36 H13        13.8240   32.0923   16.4603 H         1 EON         0.2433
     37 H14        16.5586   37.5308   20.9408 H         1 EON         0.1633
     38 H15        16.4578   36.6552   19.4498 H         1 EON         0.1633
@<TRIPOS>BOND
     1    2    1 ar 
     2    1    6 ar 
     3    1   15 1  
     4    2    3 ar 
     5   16    2 1  
     6    3    4 ar 
     7    4    5 ar 
     8    6    5 ar 
     9    8    7 am 
    10    7   16 am 
    11    7   17 2  
    12   18    8 1  
    13   10    9 ar 
    14    9   19 ar 
    15    9   21 1  
    16   11   10 ar 
    17   12   11 ar 
    18   12   18 ar 
    19   12   20 1  
    20   21   13 2  
    21   15   14 1  
    22   18   19 ar 
    23   21   22 2  
    24   21   23 am 
    25    3   24 1  
    26    4   25 1  
    27    5   26 1  
    28    6   27 1  
    29    8   28 1  
    30   10   29 1  
    31   11   30 1  
    32   14   31 1  
    33   14   32 1  
    34   14   33 1  
    35   16   34 1  
    36   19   35 1  
    37   20   36 1  
    38   23   37 1  
    39   23   38 1  
@<TRIPOS>SUBSTRUCTURE
     1 EON         1

