### 
### Created by X-TOOL on Sun Sep  9 21:52:07 2018
### 

@<TRIPOS>MOLECULE
3w5n_ligand
   23    23     1     0     0
SMALL
GAST_HUCK


@<TRIPOS>ATOM
      1 C1         25.4300    2.7100   28.9030 C.3       1 NON         0.1853
      2 C2         25.1360    3.9610   28.0560 C.3       1 NON         0.1339
      3 C3         25.2620    5.2630   28.8810 C.3       1 NON         0.1140
      4 C4         24.9700    5.1290   30.3860 C.3       1 NON         0.1095
      5 C5         24.1040    3.9190   30.5960 C.3       1 NON         0.0873
      6 C6         23.7670    3.8290   32.0890 C.3       1 NON        -0.0361
      7 O1         24.8900    1.5310   28.2960 O.3       1 NON        -0.3649
      8 O2         25.9900    3.9280   26.8820 O.3       1 NON        -0.3841
      9 O3         26.5950    5.7530   28.8540 O.3       1 NON        -0.3864
     10 O4         24.2930    6.2800   30.9380 O.3       1 NON        -0.3866
     11 O5         24.8520    2.7710   30.2000 O.3       1 NON        -0.3433
     12 H1         26.5213    2.6092   28.9969 H         1 NON         0.0935
     13 H2         24.0932    3.9003   27.7113 H         1 NON         0.0671
     14 H3         24.5762    6.0038   28.4440 H         1 NON         0.0648
     15 H4         25.9236    4.9952   30.9177 H         1 NON         0.0646
     16 H5         23.1813    3.9956   30.0020 H         1 NON         0.0621
     17 H6         23.1321    2.9490   32.2691 H         1 NON         0.0255
     18 H7         23.2305    4.7378   32.3993 H         1 NON         0.0255
     19 H8         24.6965    3.7356   32.6697 H         1 NON         0.0255
     20 H9         25.2437    1.4372   27.4193 H         1 NON         0.2126
     21 H10        25.7646    4.6502   26.3074 H         1 NON         0.2101
     22 H11        27.1692    5.1294   29.2830 H         1 NON         0.2100
     23 H12        24.8306    7.0529   30.8117 H         1 NON         0.2100
@<TRIPOS>BOND
     1    1    2 1  
     2    1    7 1  
     3    1   11 1  
     4    2    3 1  
     5    2    8 1  
     6    3    4 1  
     7    3    9 1  
     8    4    5 1  
     9    4   10 1  
    10    5    6 1  
    11    5   11 1  
    12    1   12 1  
    13    2   13 1  
    14    3   14 1  
    15    4   15 1  
    16    5   16 1  
    17    6   17 1  
    18    6   18 1  
    19    6   19 1  
    20    7   20 1  
    21    8   21 1  
    22    9   22 1  
    23   10   23 1  
@<TRIPOS>SUBSTRUCTURE
     1 NON         1

