3w5n_ligand
  -I-interpret- 

 23 23  0  0  0  0  0  0  0  0999 V2000
   25.4300    2.7100   28.9030 C   0  0  0  0  0
   25.1360    3.9610   28.0560 C   0  0  0  0  0
   25.2620    5.2630   28.8810 C   0  0  0  0  0
   24.9700    5.1290   30.3860 C   0  0  0  0  0
   24.1040    3.9190   30.5960 C   0  0  0  0  0
   23.7670    3.8290   32.0890 C   0  0  0  0  0
   24.8900    1.5310   28.2960 O   0  0  0  0  0
   25.9900    3.9280   26.8820 O   0  0  0  0  0
   26.5950    5.7530   28.8540 O   0  0  0  0  0
   24.2930    6.2800   30.9380 O   0  0  0  0  0
   24.8520    2.7710   30.2000 O   0  0  0  0  0
   26.5172    2.6740   28.9718 H   0  0  0  0  0
   24.0979    3.9533   27.7239 H   0  0  0  0  0
   24.5225    5.9102   28.4094 H   0  0  0  0  0
   25.9286    5.0411   30.8974 H   0  0  0  0  0
   23.1839    3.9800   30.0149 H   0  0  0  0  0
   23.1762    2.9317   32.2734 H   0  0  0  0  0
   24.6903    3.7827   32.6664 H   0  0  0  0  0
   23.1957    4.7089   32.3849 H   0  0  0  0  0
   25.2474    1.4362   27.4101 H   0  0  0  0  0
   25.8628    3.0970   26.4184 H   0  0  0  0  0
   26.8729    5.8713   27.9427 H   0  0  0  0  0
   24.8363    7.0611   30.8103 H   0  0  0  0  0
  1  2  1  0  0  0
  1  7  1  0  0  0
  1 11  1  0  0  0
  2  3  1  0  0  0
  2  8  1  0  0  0
  3  4  1  0  0  0
  3  9  1  0  0  0
  4  5  1  0  0  0
  4 10  1  0  0  0
  5  6  1  0  0  0
  5 11  1  0  0  0
  1 12  1  0  0  0
  2 13  1  0  0  0
  3 14  1  0  0  0
  4 15  1  0  0  0
  5 16  1  0  0  0
  6 17  1  0  0  0
  6 18  1  0  0  0
  6 19  1  0  0  0
  7 20  1  0  0  0
  8 21  1  0  0  0
  9 22  1  0  0  0
 10 23  1  0  0  0
M  END
$$$$
