### 
### Created by X-TOOL on Wed Jan  1 15:39:35 2020
### 

@<TRIPOS>MOLECULE
5yft_ligand
   26    26     1     0     0
SMALL
GAST_HUCK


@<TRIPOS>ATOM
      1 P          69.2130   68.5080  280.5660 P.3       1 RI2         0.2008
      2 C1         65.6450   71.1040  277.5840 C.3       1 RI2         0.2169
      3 O1         65.3760   72.1060  276.5990 O.3       1 RI2        -0.2426
      4 C2         64.4900   71.0340  278.5970 C.3       1 RI2         0.1384
      5 O2         63.9660   72.3470  278.9320 O.3       1 RI2        -0.3838
      6 C3         65.2390   70.4720  279.7950 C.3       1 RI2         0.1147
      7 O3         64.5460   70.6530  281.0310 O.3       1 RI2        -0.3864
      8 C4         66.5530   71.2470  279.7690 C.3       1 RI2         0.1180
      9 O4         66.8400   71.4580  278.3550 O.3       1 RI2        -0.3366
     10 C5         67.7050   70.6470  280.5560 C.3       1 RI2         0.1071
     11 O5         67.9320   69.3600  280.1070 O.3       1 RI2        -0.2734
     12 PA         65.1970   71.7380  275.0330 P.3       1 RI2         0.2046
     13 O1A        64.5380   72.9310  274.4730 O.co2     1 RI2        -0.5536
     14 O1P        69.2380   67.2190  279.8410 O.co2     1 RI2        -0.5537
     15 O2A        66.6470   71.6460  274.4470 O.co2     1 RI2        -0.5536
     16 O2P        70.3690   69.3950  280.2460 O.co2     1 RI2        -0.5537
     17 O3A        64.5160   70.3890  274.8850 O.co2     1 RI2        -0.5536
     18 O3P        69.0160   68.2780  282.0800 O.co2     1 RI2        -0.5537
     19 H1         65.7821   70.1303  277.0910 H         1 RI2         0.0990
     20 H2         63.6777   70.3760  278.2547 H         1 RI2         0.0674
     21 H3         64.6581   72.8755  279.3118 H         1 RI2         0.2101
     22 H4         65.4240   69.3968  279.6547 H         1 RI2         0.0648
     23 H5         64.4135   71.5809  281.1855 H         1 RI2         0.2100
     24 H6         66.3636   72.2303  280.2243 H         1 RI2         0.0650
     25 H7         67.4495   70.6251  281.6257 H         1 RI2         0.0639
     26 H8         68.6097   71.2547  280.4074 H         1 RI2         0.0639
@<TRIPOS>BOND
     1   11    1 1  
     2    1   14 ar 
     3    1   16 ar 
     4    1   18 ar 
     5    2    3 1  
     6    2    4 1  
     7    9    2 1  
     8    3   12 1  
     9    4    5 1  
    10    6    4 1  
    11    6    7 1  
    12    8    6 1  
    13    8    9 1  
    14   10    8 1  
    15   10   11 1  
    16   12   13 ar 
    17   12   15 ar 
    18   12   17 ar 
    19    2   19 1  
    20    4   20 1  
    21    5   21 1  
    22    6   22 1  
    23    7   23 1  
    24    8   24 1  
    25   10   25 1  
    26   10   26 1  
@<TRIPOS>SUBSTRUCTURE
     1 RI2         1

