5yft_ligand
  -I-interpret- 

 30 30  0  0  0  0  0  0  0  0999 V2000
   69.2130   68.5080  280.5660 P   0  0  0  0  0
   65.6450   71.1040  277.5840 C   0  0  0  0  0
   65.3760   72.1060  276.5990 O   0  0  0  0  0
   64.4900   71.0340  278.5970 C   0  0  0  0  0
   63.9660   72.3470  278.9320 O   0  0  0  0  0
   65.2390   70.4720  279.7950 C   0  0  0  0  0
   64.5460   70.6530  281.0310 O   0  0  0  0  0
   66.5530   71.2470  279.7690 C   0  0  0  0  0
   66.8400   71.4580  278.3550 O   0  0  0  0  0
   67.7050   70.6470  280.5560 C   0  0  0  0  0
   67.9320   69.3600  280.1070 O   0  0  0  0  0
   65.1970   71.7380  275.0330 P   0  0  0  0  0
   64.5380   72.9310  274.4730 O   0  0  0  0  0
   69.2380   67.2190  279.8410 O   0  0  0  0  0
   66.6470   71.6460  274.4470 O   0  0  0  0  0
   70.3690   69.3950  280.2460 O   0  0  0  0  0
   64.5160   70.3890  274.8850 O   0  0  0  0  0
   69.0160   68.2780  282.0800 O   0  0  0  0  0
   65.7756   70.1572  277.0599 H   0  0  0  0  0
   63.6275   70.4678  278.2456 H   0  0  0  0  0
   63.4927   72.7036  278.1768 H   0  0  0  0  0
   65.3644   69.3912  279.7301 H   0  0  0  0  0
   63.7265   70.1533  281.0133 H   0  0  0  0  0
   66.4363   72.1873  280.3077 H   0  0  0  0  0
   67.4560   70.6284  281.6170 H   0  0  0  0  0
   68.6017   71.2502  280.4140 H   0  0  0  0  0
   67.0871   70.8716  274.8050 H   0  0  0  0  0
   70.2932   70.2106  280.7466 H   0  0  0  0  0
   65.0583   69.7113  275.2951 H   0  0  0  0  0
   69.0025   69.1248  282.5321 H   0  0  0  0  0
 11  1  1  0  0  0
  1 14  2  0  0  0
  1 16  1  0  0  0
  1 18  1  0  0  0
  2  3  1  0  0  0
  2  4  1  0  0  0
  9  2  1  0  0  0
  3 12  1  0  0  0
  4  5  1  0  0  0
  6  4  1  0  0  0
  6  7  1  0  0  0
  8  6  1  0  0  0
  8  9  1  0  0  0
 10  8  1  0  0  0
 10 11  1  0  0  0
 12 13  2  0  0  0
 12 15  1  0  0  0
 12 17  1  0  0  0
  2 19  1  0  0  0
  4 20  1  0  0  0
  5 21  1  0  0  0
  6 22  1  0  0  0
  7 23  1  0  0  0
  8 24  1  0  0  0
 10 25  1  0  0  0
 10 26  1  0  0  0
 15 27  1  0  0  0
 16 28  1  0  0  0
 17 29  1  0  0  0
 18 30  1  0  0  0
M  END
$$$$
