5d0r_ligand
  -I-interpret- 

 25 26  0  0  0  0  0  0  0  0999 V2000
   17.5290   23.0010   -0.3880 O   0  0  0  0  0
   16.8620   23.1490    0.7770 C   0  0  0  0  0
   16.8620   22.0370    1.7890 C   0  0  0  0  0
   17.7730   20.4710    1.5180 Cl  0  0  0  0  0
   16.1790   22.2810    2.9870 C   0  0  0  0  0
   15.5040   23.4910    3.2310 C   0  0  0  0  0
   14.6220   23.8380    4.7610 Cl  0  0  0  0  0
   15.4770   24.5210    2.3090 C   0  0  0  0  0
   16.1100   24.3990    1.0880 C   0  0  0  0  0
   15.9810   25.7410    0.0730 S   0  0  0  0  0
   17.3110   26.6790    0.5110 C   0  0  0  0  0
   18.2910   26.2880    1.4280 C   0  0  0  0  0
   19.3480   27.1480    1.7210 C   0  0  0  0  0
   20.5940   26.6790    2.9100 Cl  0  0  0  0  0
   19.4980   28.3810    1.1170 C   0  0  0  0  0
   18.5680   28.8260    0.1770 C   0  0  0  0  0
   18.7950   30.4360   -0.5840 Cl  0  0  0  0  0
   17.4110   27.9730   -0.1850 C   0  0  0  0  0
   16.4650   28.3450   -1.1050 O   0  0  0  0  0
   17.4286   23.7963   -0.9162 H   0  0  0  0  0
   16.1701   21.5081    3.7556 H   0  0  0  0  0
   14.9480   25.4432    2.5497 H   0  0  0  0  0
   18.2287   25.3135    1.9124 H   0  0  0  0  0
   20.3489   29.0108    1.3765 H   0  0  0  0  0
   16.6855   29.2105   -1.4570 H   0  0  0  0  0
  1  2  1  0  0  0
  2  3  4  0  0  0
  2  9  4  0  0  0
  3  4  1  0  0  0
  3  5  4  0  0  0
  5  6  4  0  0  0
  6  7  1  0  0  0
  6  8  4  0  0  0
  8  9  4  0  0  0
  9 10  1  0  0  0
 10 11  1  0  0  0
 11 12  4  0  0  0
 11 18  4  0  0  0
 12 13  4  0  0  0
 13 14  1  0  0  0
 13 15  4  0  0  0
 15 16  4  0  0  0
 16 17  1  0  0  0
 16 18  4  0  0  0
 18 19  1  0  0  0
  1 20  1  0  0  0
  5 21  1  0  0  0
  8 22  1  0  0  0
 12 23  1  0  0  0
 15 24  1  0  0  0
 19 25  1  0  0  0
M  END
$$$$
