### 
### Created by X-TOOL on Mon Sep 10 21:13:27 2018
### 

@<TRIPOS>MOLECULE
5d0r_ligand
   25    26     1     0     0
SMALL
GAST_HUCK


@<TRIPOS>ATOM
      1 OAA        17.5290   23.0010   -0.3880 O.3       1 B1T        -0.3345
      2 CAP        16.8620   23.1490    0.7770 C.ar      1 B1T         0.1164
      3 CAN        16.8620   22.0370    1.7890 C.ar      1 B1T         0.0631
      4 CLAE       17.7730   20.4710    1.5180 Cl        1 B1T        -0.0808
      5 CAG        16.1790   22.2810    2.9870 C.ar      1 B1T        -0.0494
      6 CAL        15.5040   23.4910    3.2310 C.ar      1 B1T         0.0235
      7 CLAC       14.6220   23.8380    4.7610 Cl        1 B1T        -0.0827
      8 CAI        15.4770   24.5210    2.3090 C.ar      1 B1T        -0.0422
      9 CAR        16.1100   24.3990    1.0880 C.ar      1 B1T         0.0580
     10 SAK        15.9810   25.7410    0.0730 S.3       1 B1T        -0.0536
     11 CAS        17.3110   26.6790    0.5110 C.ar      1 B1T         0.0580
     12 CAJ        18.2910   26.2880    1.4280 C.ar      1 B1T        -0.0422
     13 CAM        19.3480   27.1480    1.7210 C.ar      1 B1T         0.0235
     14 CLAD       20.5940   26.6790    2.9100 Cl        1 B1T        -0.0827
     15 CAH        19.4980   28.3810    1.1170 C.ar      1 B1T        -0.0494
     16 CAO        18.5680   28.8260    0.1770 C.ar      1 B1T         0.0631
     17 CLAF       18.7950   30.4360   -0.5840 Cl        1 B1T        -0.0808
     18 CAQ        17.4110   27.9730   -0.1850 C.ar      1 B1T         0.1164
     19 OAB        16.4650   28.3450   -1.1050 O.3       1 B1T        -0.3345
     20 H1         17.4297   23.7881   -0.9107 H         1 B1T         0.2464
     21 H2         16.1701   21.5124    3.7513 H         1 B1T         0.0545
     22 H3         14.9510   25.4381    2.5483 H         1 B1T         0.0545
     23 H4         18.2291   25.3189    1.9097 H         1 B1T         0.0545
     24 H5         20.3442   29.0074    1.3751 H         1 B1T         0.0545
     25 H6         15.8155   27.6564   -1.1858 H         1 B1T         0.2464
@<TRIPOS>BOND
     1    1    2 1  
     2    2    3 ar 
     3    2    9 ar 
     4    3    4 1  
     5    3    5 ar 
     6    5    6 ar 
     7    6    7 1  
     8    6    8 ar 
     9    8    9 ar 
    10    9   10 1  
    11   10   11 1  
    12   11   12 ar 
    13   11   18 ar 
    14   12   13 ar 
    15   13   14 1  
    16   13   15 ar 
    17   15   16 ar 
    18   16   17 1  
    19   16   18 ar 
    20   18   19 1  
    21    1   20 1  
    22    5   21 1  
    23    8   22 1  
    24   12   23 1  
    25   15   24 1  
    26   19   25 1  
@<TRIPOS>SUBSTRUCTURE
     1 B1T         1

