### 
### Created by X-TOOL on Mon Sep 10 21:13:18 2018
### 

@<TRIPOS>MOLECULE
4ibk_ligand
   46    50     1     0     0
SMALL
GAST_HUCK


@<TRIPOS>ATOM
      1 CAO         1.0080   21.8020    2.7480 C.ar      1 1DE        -0.0351
      2 CBD         0.4380   22.6640    3.7020 C.ar      1 1DE         0.1181
      3 OAQ        -0.2560   22.4350    4.8790 O.3       1 1DE        -0.2926
      4 CAP        -0.5950   23.6730    5.4210 C.3       1 1DE         0.1856
      5 OAR        -0.0590   24.6660    4.5920 O.3       1 1DE        -0.2945
      6 CBF         0.5600   24.0130    3.5360 C.ar      1 1DE         0.1305
      7 CAZ         1.2320   24.5200    2.4260 C.ar      1 1DE         0.0539
      8 CL2         1.3090   26.2430    2.3280 Cl        1 1DE        -0.0838
      9 CAM         1.7970   23.6860    1.4670 C.ar      1 1DE        -0.0618
     10 CBB         1.6660   22.3100    1.6400 C.ar      1 1DE        -0.0227
     11 CBG         2.2380   21.3080    0.6990 C.3       1 1DE         0.1271
     12 CAX         3.2760   20.5680    1.2450 C.2       1 1DE         0.0865
     13 CAU         4.5190   21.2050    1.7580 C.2       1 1DE         0.1525
     14 OAB         4.8480   22.3010    1.3260 O.2       1 1DE        -0.3895
     15 CBE         5.4110   20.5630    2.7540 C.2       1 1DE         0.0802
     16 CAL         5.1690   19.4670    3.6010 C.2       1 1DE        -0.0559
     17 CAK         6.2880   19.1260    4.4290 C.2       1 1DE        -0.0521
     18 CAY         7.3910   19.9700    4.2250 C.2       1 1DE         0.1027
     19 CL1         8.9220   19.9290    4.9960 Cl        1 1DE        -0.0495
     20 SAS         6.9690   21.1000    3.0590 S.3       1 1DE        -0.0152
     21 CAV         3.0020   19.2170    0.9940 C.2       1 1DE         0.1848
     22 OAE         3.7430   18.1290    1.3790 O.3       1 1DE        -0.3229
     23 CAW         1.8270   19.1840    0.2630 C.2       1 1DE         0.2692
     24 OAC         1.1820   18.0670   -0.2180 O.2       1 1DE        -0.3697
     25 NBH         1.4250   20.4440    0.0760 N.am      1 1DE        -0.1948
     26 CBC         0.3330   20.8070   -0.7600 C.ar      1 1DE         0.0763
     27 CAN        -0.9060   20.2570   -0.4830 C.ar      1 1DE        -0.0266
     28 CAJ         0.5040   21.6890   -1.8210 C.ar      1 1DE        -0.0381
     29 CAH        -0.5900   22.0060   -2.6030 C.ar      1 1DE        -0.0719
     30 CAI        -1.8360   21.4510   -2.3240 C.ar      1 1DE        -0.0630
     31 CBA        -1.9970   20.5730   -1.2640 C.ar      1 1DE        -0.0033
     32 CAT        -3.3260   19.9690   -0.9490 C.2       1 1DE         0.0594
     33 OAD        -4.3290   20.2480   -1.6530 O.co2     1 1DE        -0.5608
     34 OAA        -3.4510   19.1750    0.0190 O.co2     1 1DE        -0.5608
     35 H1          0.9316   20.7289    2.8812 H         1 1DE         0.0456
     36 H2         -0.1759   23.7652    6.4339 H         1 1DE         0.0971
     37 H3         -1.6894   23.7744    5.4663 H         1 1DE         0.0971
     38 H4          2.3230   24.0941    0.6115 H         1 1DE         0.0445
     39 H5          2.6790   21.9181   -0.1031 H         1 1DE         0.0895
     40 H6          4.2224   18.9291    3.6255 H         1 1DE         0.0517
     41 H7          6.2831   18.3010    5.1398 H         1 1DE         0.0449
     42 H8          3.3209   17.3351    1.0721 H         1 1DE         0.2508
     43 H9         -1.0192   19.5747    0.3517 H         1 1DE         0.0536
     44 H10         1.4765   22.1195   -2.0306 H         1 1DE         0.0524
     45 H11        -0.4778   22.6894   -3.4369 H         1 1DE         0.0584
     46 H12        -2.6886   21.7082   -2.9420 H         1 1DE         0.0521
@<TRIPOS>BOND
     1    1    2 ar 
     2    1   10 ar 
     3    2    3 1  
     4    2    6 ar 
     5    3    4 1  
     6    4    5 1  
     7    5    6 1  
     8    6    7 ar 
     9    7    8 1  
    10    7    9 ar 
    11    9   10 ar 
    12   10   11 1  
    13   11   12 1  
    14   11   25 1  
    15   12   13 1  
    16   12   21 2  
    17   13   14 2  
    18   13   15 1  
    19   15   16 2  
    20   15   20 1  
    21   16   17 1  
    22   17   18 2  
    23   18   19 1  
    24   18   20 1  
    25   21   22 1  
    26   21   23 1  
    27   23   24 2  
    28   23   25 am 
    29   25   26 1  
    30   26   27 ar 
    31   26   28 ar 
    32   27   31 ar 
    33   28   29 ar 
    34   29   30 ar 
    35   30   31 ar 
    36   31   32 1  
    37   32   33 ar 
    38   32   34 ar 
    39    1   35 1  
    40    4   36 1  
    41    4   37 1  
    42    9   38 1  
    43   11   39 1  
    44   16   40 1  
    45   17   41 1  
    46   22   42 1  
    47   27   43 1  
    48   28   44 1  
    49   29   45 1  
    50   30   46 1  
@<TRIPOS>SUBSTRUCTURE
     1 1DE         1

