4ibk_ligand
  -I-interpret- 

 47 51  0  0  0  0  0  0  0  0999 V2000
    1.0080   21.8020    2.7480 C   0  0  0  0  0
    0.4380   22.6640    3.7020 C   0  0  0  0  0
   -0.2560   22.4350    4.8790 O   0  0  0  0  0
   -0.5950   23.6730    5.4210 C   0  0  0  0  0
   -0.0590   24.6660    4.5920 O   0  0  0  0  0
    0.5600   24.0130    3.5360 C   0  0  0  0  0
    1.2320   24.5200    2.4260 C   0  0  0  0  0
    1.3090   26.2430    2.3280 Cl  0  0  0  0  0
    1.7970   23.6860    1.4670 C   0  0  0  0  0
    1.6660   22.3100    1.6400 C   0  0  0  0  0
    2.2380   21.3080    0.6990 C   0  0  0  0  0
    3.2760   20.5680    1.2450 C   0  0  0  0  0
    4.5190   21.2050    1.7580 C   0  0  0  0  0
    4.8480   22.3010    1.3260 O   0  0  0  0  0
    5.4110   20.5630    2.7540 C   0  0  0  0  0
    5.1690   19.4670    3.6010 C   0  0  0  0  0
    6.2880   19.1260    4.4290 C   0  0  0  0  0
    7.3910   19.9700    4.2250 C   0  0  0  0  0
    8.9220   19.9290    4.9960 Cl  0  0  0  0  0
    6.9690   21.1000    3.0590 S   0  0  0  0  0
    3.0020   19.2170    0.9940 C   0  0  0  0  0
    3.7430   18.1290    1.3790 O   0  0  0  0  0
    1.8270   19.1840    0.2630 C   0  0  0  0  0
    1.1820   18.0670   -0.2180 O   0  0  0  0  0
    1.4250   20.4440    0.0760 N   0  0  0  0  0
    0.3330   20.8070   -0.7600 C   0  0  0  0  0
   -0.9060   20.2570   -0.4830 C   0  0  0  0  0
    0.5040   21.6890   -1.8210 C   0  0  0  0  0
   -0.5900   22.0060   -2.6030 C   0  0  0  0  0
   -1.8360   21.4510   -2.3240 C   0  0  0  0  0
   -1.9970   20.5730   -1.2640 C   0  0  0  0  0
   -3.3260   19.9690   -0.9490 C   0  0  0  0  0
   -4.3290   20.2480   -1.6530 O   0  0  0  0  0
   -3.4510   19.1750    0.0190 O   0  0  0  0  0
    0.9312   20.7230    2.8819 H   0  0  0  0  0
   -0.1939   23.7662    6.4302 H   0  0  0  0  0
   -1.6785   23.7752    5.4811 H   0  0  0  0  0
    2.3259   24.0964    0.6068 H   0  0  0  0  0
    2.5712   22.0027   -0.0720 H   0  0  0  0  0
    4.2216   18.9286    3.6255 H   0  0  0  0  0
    6.2831   18.3003    5.1405 H   0  0  0  0  0
    3.3165   17.3268    1.0689 H   0  0  0  0  0
   -1.0199   19.5709    0.3563 H   0  0  0  0  0
    1.4819   22.1219   -2.0317 H   0  0  0  0  0
   -0.4772   22.6932   -3.4415 H   0  0  0  0  0
   -2.6933   21.7096   -2.9455 H   0  0  0  0  0
   -2.6019   19.0656    0.4534 H   0  0  0  0  0
  1  2  4  0  0  0
  1 10  4  0  0  0
  2  3  1  0  0  0
  2  6  4  0  0  0
  3  4  1  0  0  0
  4  5  1  0  0  0
  5  6  1  0  0  0
  6  7  4  0  0  0
  7  8  1  0  0  0
  7  9  4  0  0  0
  9 10  4  0  0  0
 10 11  1  0  0  0
 11 12  1  0  0  0
 11 25  1  0  0  0
 12 13  1  0  0  0
 12 21  2  0  0  0
 13 14  2  0  0  0
 13 15  1  0  0  0
 15 16  4  0  0  0
 15 20  4  0  0  0
 16 17  4  0  0  0
 17 18  4  0  0  0
 18 19  1  0  0  0
 18 20  4  0  0  0
 21 22  1  0  0  0
 21 23  1  0  0  0
 23 24  2  0  0  0
 23 25  1  0  0  0
 25 26  1  0  0  0
 26 27  4  0  0  0
 26 28  4  0  0  0
 27 31  4  0  0  0
 28 29  4  0  0  0
 29 30  4  0  0  0
 30 31  4  0  0  0
 31 32  1  0  0  0
 32 33  2  0  0  0
 32 34  1  0  0  0
  1 35  1  0  0  0
  4 36  1  0  0  0
  4 37  1  0  0  0
  9 38  1  0  0  0
 11 39  1  0  0  0
 16 40  1  0  0  0
 17 41  1  0  0  0
 22 42  1  0  0  0
 27 43  1  0  0  0
 28 44  1  0  0  0
 29 45  1  0  0  0
 30 46  1  0  0  0
 34 47  1  0  0  0
M  END
$$$$
