### 
### Created by X-TOOL on Mon Sep 10 21:13:05 2018
### 

@<TRIPOS>MOLECULE
3qaa_ligand
   81    84     1     0     0
SMALL
GAST_HUCK


@<TRIPOS>ATOM
      1 C2         20.9420   27.6150   14.7790 C.ar      1 G04         0.0908
      2 C3         19.5940   27.5620   14.4440 C.ar      1 G04        -0.0313
      3 C4         18.8320   26.4280   14.7080 C.ar      1 G04        -0.0440
      4 C5         19.3720   25.3810   15.4480 C.ar      1 G04         0.0971
      5 C6         20.7160   25.4510   15.7570 C.ar      1 G04        -0.0440
      6 C7         21.5250   26.5360   15.4430 C.ar      1 G04        -0.0313
      7 S8         18.4050   23.9750   15.8770 S.o2      1 G04         0.0657
      8 O9         17.3540   23.8310   14.8320 O.2       1 G04        -0.1515
      9 O10        19.3040   22.7810   15.9680 O.2       1 G04        -0.1515
     10 N11        17.6620   24.1990   17.3230 N.am      1 G04        -0.2325
     11 C12        18.5440   24.5780   18.4090 C.3       1 G04         0.0319
     12 C13        18.3420   23.7830   19.7020 C.3       1 G04        -0.0296
     13 C14        18.1660   22.2870   19.4840 C.3       1 G04        -0.0612
     14 C15        19.5430   24.0310   20.6290 C.3       1 G04        -0.0612
     15 C16        16.3960   24.9270   17.3450 C.3       1 G04         0.0578
     16 C17        15.2640   24.0460   17.8720 C.3       1 G04         0.0967
     17 O18        14.1040   24.7930   18.2510 O.3       1 G04        -0.3877
     18 C19        14.8740   22.9290   16.9030 C.3       1 G04         0.0807
     19 N20        13.9440   22.0230   17.5850 N.am      1 G04        -0.2550
     20 C21        14.2040   20.7510   17.9190 C.2       1 G04         0.3203
     21 O22        15.3000   20.2220   17.6810 O.2       1 G04        -0.3775
     22 O23        13.1760   20.0920   18.5260 O.3       1 G04        -0.2578
     23 C24        13.3810   18.7100   18.8200 C.3       1 G04         0.1213
     24 C25        12.9230   18.4770   20.2630 C.3       1 G04         0.0816
     25 O26        11.4920   18.4800   20.1910 O.3       1 G04        -0.3479
     26 C27        11.0770   18.0470   18.9070 C.3       1 G04         0.1673
     27 O28        10.2630   19.0370   18.2700 O.3       1 G04        -0.3483
     28 C29        10.8580   19.4530   17.0530 C.3       1 G04         0.0773
     29 C30        11.9250   18.4170   16.7100 C.3       1 G04         0.0919
     30 C31        12.3360   17.8590   18.0810 C.3       1 G04         0.0710
     31 C32        14.1790   23.4690   15.6380 C.3       1 G04         0.0064
     32 C33        12.4400   21.9080   14.6260 C.ar      1 G04        -0.0603
     33 C34        12.0560   20.8150   13.8530 C.ar      1 G04        -0.0686
     34 C35        12.9920   20.1100   13.0900 C.ar      1 G04        -0.0687
     35 C36        14.3250   20.5320   13.1610 C.ar      1 G04        -0.0686
     36 C37        14.7170   21.6070   13.9630 C.ar      1 G04        -0.0603
     37 C38        13.7720   22.3040   14.7160 C.ar      1 G04        -0.0408
     38 O39        21.7050   28.7330   14.5450 O.3       1 G04        -0.3212
     39 C40        23.0720   28.3730   14.7960 C.3       1 G04         0.0594
     40 O41        11.2990   17.2940   16.0480 O.3       1 G04        -0.3770
     41 C42        11.3180   17.4630   14.6350 C.3       1 G04         0.0369
     42 H1         19.1287   28.4182   13.9692 H         1 G04         0.0542
     43 H2         17.8159   26.3603   14.3364 H         1 G04         0.0608
     44 H3         21.1657   24.6112   16.2743 H         1 G04         0.0608
     45 H4         22.5766   26.5436   15.7059 H         1 G04         0.0542
     46 H5         18.3769   25.6423   18.6311 H         1 G04         0.0480
     47 H6         19.5818   24.4317   18.0750 H         1 G04         0.0480
     48 H7         17.4325   24.1600   20.1925 H         1 G04         0.0311
     49 H8         18.0271   21.7889   20.4549 H         1 G04         0.0233
     50 H9         19.0601   21.8810   18.9882 H         1 G04         0.0233
     51 H10        17.2837   22.1099   18.8515 H         1 G04         0.0233
     52 H11        19.6684   25.1126   20.7852 H         1 G04         0.0233
     53 H12        20.4530   23.6192   20.1683 H         1 G04         0.0233
     54 H13        19.3670   23.5388   21.5968 H         1 G04         0.0233
     55 H14        16.1514   25.2533   16.3234 H         1 G04         0.0504
     56 H15        16.4990   25.8074   17.9964 H         1 G04         0.0504
     57 H16        15.6459   23.5619   18.7829 H         1 G04         0.0634
     58 H17        13.7739   25.2674   17.4970 H         1 G04         0.2100
     59 H18        15.7800   22.3795   16.6076 H         1 G04         0.0604
     60 H19        13.0415   22.3838   17.8203 H         1 G04         0.1873
     61 H20        14.4175   18.3982   18.6238 H         1 G04         0.0676
     62 H21        13.2808   19.2839   20.9194 H         1 G04         0.0590
     63 H22        13.2913   17.5101   20.6364 H         1 G04         0.0590
     64 H23        10.5203   17.1017   18.9874 H         1 G04         0.0914
     65 H24        11.3180   20.4447   17.1754 H         1 G04         0.0587
     66 H25        10.1010   19.4957   16.2560 H         1 G04         0.0587
     67 H26        12.7602   18.8394   16.1320 H         1 G04         0.0624
     68 H27        12.6598   16.8105   18.0051 H         1 G04         0.0405
     69 H28        14.8702   24.1340   15.0995 H         1 G04         0.0449
     70 H29        13.2804   24.0325   15.9296 H         1 G04         0.0449
     71 H30        11.6846   22.4633   15.1701 H         1 G04         0.0557
     72 H31        11.0169   20.5065   13.8427 H         1 G04         0.0599
     73 H32        12.6977   19.2715   12.4693 H         1 G04         0.0559
     74 H33        15.0744   20.0099   12.5771 H         1 G04         0.0599
     75 H34        15.7598   21.9006   14.0002 H         1 G04         0.0557
     76 H35        23.7191   29.2448   14.6192 H         1 G04         0.0577
     77 H36        23.3658   27.5555   14.1212 H         1 G04         0.0577
     78 H37        23.1786   28.0430   15.8399 H         1 G04         0.0577
     79 H38        10.8371   16.5975   14.1557 H         1 G04         0.0524
     80 H39        12.3592   17.5420   14.2891 H         1 G04         0.0524
     81 H40        10.7723   18.3800   14.3680 H         1 G04         0.0524
@<TRIPOS>BOND
     1    2    1 ar 
     2    6    1 ar 
     3    1   38 1  
     4    3    2 ar 
     5    4    3 ar 
     6    4    5 ar 
     7    7    4 1  
     8    5    6 ar 
     9    7    8 2  
    10    7    9 2  
    11   10    7 am 
    12   10   11 1  
    13   15   10 1  
    14   11   12 1  
    15   12   13 1  
    16   12   14 1  
    17   16   15 1  
    18   16   17 1  
    19   18   16 1  
    20   18   19 1  
    21   31   18 1  
    22   19   20 am 
    23   20   21 2  
    24   20   22 1  
    25   22   23 1  
    26   23   24 1  
    27   23   30 1  
    28   24   25 1  
    29   26   25 1  
    30   26   27 1  
    31   30   26 1  
    32   28   27 1  
    33   29   28 1  
    34   30   29 1  
    35   29   40 1  
    36   37   31 1  
    37   32   33 ar 
    38   32   37 ar 
    39   33   34 ar 
    40   34   35 ar 
    41   35   36 ar 
    42   36   37 ar 
    43   38   39 1  
    44   40   41 1  
    45    2   42 1  
    46    3   43 1  
    47    5   44 1  
    48    6   45 1  
    49   11   46 1  
    50   11   47 1  
    51   12   48 1  
    52   13   49 1  
    53   13   50 1  
    54   13   51 1  
    55   14   52 1  
    56   14   53 1  
    57   14   54 1  
    58   15   55 1  
    59   15   56 1  
    60   16   57 1  
    61   17   58 1  
    62   18   59 1  
    63   19   60 1  
    64   23   61 1  
    65   24   62 1  
    66   24   63 1  
    67   26   64 1  
    68   28   65 1  
    69   28   66 1  
    70   29   67 1  
    71   30   68 1  
    72   31   69 1  
    73   31   70 1  
    74   32   71 1  
    75   33   72 1  
    76   34   73 1  
    77   35   74 1  
    78   36   75 1  
    79   39   76 1  
    80   39   77 1  
    81   39   78 1  
    82   41   79 1  
    83   41   80 1  
    84   41   81 1  
@<TRIPOS>SUBSTRUCTURE
     1 G04         1

