3qaa_ligand
  -I-interpret- 

 81 84  0  0  0  0  0  0  0  0999 V2000
   20.9420   27.6150   14.7790 C   0  0  0  0  0
   19.5940   27.5620   14.4440 C   0  0  0  0  0
   18.8320   26.4280   14.7080 C   0  0  0  0  0
   19.3720   25.3810   15.4480 C   0  0  0  0  0
   20.7160   25.4510   15.7570 C   0  0  0  0  0
   21.5250   26.5360   15.4430 C   0  0  0  0  0
   18.4050   23.9750   15.8770 S   0  0  0  0  0
   17.3540   23.8310   14.8320 O   0  0  0  0  0
   19.3040   22.7810   15.9680 O   0  0  0  0  0
   17.6620   24.1990   17.3230 N   0  0  0  0  0
   18.5440   24.5780   18.4090 C   0  0  0  0  0
   18.3420   23.7830   19.7020 C   0  0  0  0  0
   18.1660   22.2870   19.4840 C   0  0  0  0  0
   19.5430   24.0310   20.6290 C   0  0  0  0  0
   16.3960   24.9270   17.3450 C   0  0  0  0  0
   15.2640   24.0460   17.8720 C   0  0  0  0  0
   14.1040   24.7930   18.2510 O   0  0  0  0  0
   14.8740   22.9290   16.9030 C   0  0  0  0  0
   13.9440   22.0230   17.5850 N   0  0  0  0  0
   14.2040   20.7510   17.9190 C   0  0  0  0  0
   15.3000   20.2220   17.6810 O   0  0  0  0  0
   13.1760   20.0920   18.5260 O   0  0  0  0  0
   13.3810   18.7100   18.8200 C   0  0  0  0  0
   12.9230   18.4770   20.2630 C   0  0  0  0  0
   11.4920   18.4800   20.1910 O   0  0  0  0  0
   11.0770   18.0470   18.9070 C   0  0  0  0  0
   10.2630   19.0370   18.2700 O   0  0  0  0  0
   10.8580   19.4530   17.0530 C   0  0  0  0  0
   11.9250   18.4170   16.7100 C   0  0  0  0  0
   12.3360   17.8590   18.0810 C   0  0  0  0  0
   14.1790   23.4690   15.6380 C   0  0  0  0  0
   12.4400   21.9080   14.6260 C   0  0  0  0  0
   12.0560   20.8150   13.8530 C   0  0  0  0  0
   12.9920   20.1100   13.0900 C   0  0  0  0  0
   14.3250   20.5320   13.1610 C   0  0  0  0  0
   14.7170   21.6070   13.9630 C   0  0  0  0  0
   13.7720   22.3040   14.7160 C   0  0  0  0  0
   21.7050   28.7330   14.5450 O   0  0  0  0  0
   23.0720   28.3730   14.7960 C   0  0  0  0  0
   11.2990   17.2940   16.0480 O   0  0  0  0  0
   11.3180   17.4630   14.6350 C   0  0  0  0  0
   19.1261   28.4230   13.9666 H   0  0  0  0  0
   17.8103   26.3599   14.3344 H   0  0  0  0  0
   21.1682   24.6066   16.2771 H   0  0  0  0  0
   22.5824   26.5437   15.7074 H   0  0  0  0  0
   18.3322   25.6217   18.6411 H   0  0  0  0  0
   19.5629   24.3852   18.0731 H   0  0  0  0  0
   17.4129   24.1353   20.1501 H   0  0  0  0  0
   17.2915   22.1129   18.8571 H   0  0  0  0  0
   19.0525   21.8860   18.9927 H   0  0  0  0  0
   18.0284   21.7946   20.4466 H   0  0  0  0  0
   20.4569   23.7043   20.1328 H   0  0  0  0  0
   19.6117   25.0949   20.8558 H   0  0  0  0  0
   19.4090   23.4690   21.5533 H   0  0  0  0  0
   16.1533   25.2356   16.3282 H   0  0  0  0  0
   16.5013   25.7901   18.0024 H   0  0  0  0  0
   15.6729   23.5827   18.7699 H   0  0  0  0  0
   13.4285   24.1916   18.5729 H   0  0  0  0  0
   15.7877   22.4193   16.5972 H   0  0  0  0  0
   13.0235   22.3910   17.8250 H   0  0  0  0  0
   14.4173   18.4679   18.5843 H   0  0  0  0  0
   13.2993   19.2442   20.9397 H   0  0  0  0  0
   13.3094   17.5417   20.6680 H   0  0  0  0  0
   10.4952   17.1294   18.9946 H   0  0  0  0  0
   11.2982   20.4449   17.1550 H   0  0  0  0  0
   10.1134   19.5210   16.2599 H   0  0  0  0  0
   12.7229   18.8425   16.1014 H   0  0  0  0  0
   12.7388   16.8543   17.9529 H   0  0  0  0  0
   14.8684   24.1227   15.1037 H   0  0  0  0  0
   13.2860   24.0216   15.9300 H   0  0  0  0  0
   11.6804   22.4663   15.1732 H   0  0  0  0  0
   11.0111   20.5048   13.8426 H   0  0  0  0  0
   12.6961   19.2668   12.4658 H   0  0  0  0  0
   15.0785   20.0070   12.5739 H   0  0  0  0  0
   15.7656   21.9022   14.0004 H   0  0  0  0  0
   23.1762   28.0462   15.8306 H   0  0  0  0  0
   23.3618   27.5629   14.1268 H   0  0  0  0  0
   23.7122   29.2376   14.6205 H   0  0  0  0  0
   10.7771   18.3720   14.3718 H   0  0  0  0  0
   12.3502   17.5412   14.2936 H   0  0  0  0  0
   10.8412   16.6049   14.1613 H   0  0  0  0  0
  2  1  4  0  0  0
  6  1  4  0  0  0
  1 38  1  0  0  0
  3  2  4  0  0  0
  4  3  4  0  0  0
  4  5  4  0  0  0
  7  4  1  0  0  0
  5  6  4  0  0  0
  7  8  2  0  0  0
  7  9  2  0  0  0
 10  7  1  0  0  0
 10 11  1  0  0  0
 15 10  1  0  0  0
 11 12  1  0  0  0
 12 13  1  0  0  0
 12 14  1  0  0  0
 16 15  1  0  0  0
 16 17  1  0  0  0
 18 16  1  0  0  0
 18 19  1  0  0  0
 31 18  1  0  0  0
 19 20  1  0  0  0
 20 21  2  0  0  0
 20 22  1  0  0  0
 22 23  1  0  0  0
 23 24  1  0  0  0
 23 30  1  0  0  0
 24 25  1  0  0  0
 26 25  1  0  0  0
 26 27  1  0  0  0
 30 26  1  0  0  0
 28 27  1  0  0  0
 29 28  1  0  0  0
 30 29  1  0  0  0
 29 40  1  0  0  0
 37 31  1  0  0  0
 32 33  4  0  0  0
 32 37  4  0  0  0
 33 34  4  0  0  0
 34 35  4  0  0  0
 35 36  4  0  0  0
 36 37  4  0  0  0
 38 39  1  0  0  0
 40 41  1  0  0  0
  2 42  1  0  0  0
  3 43  1  0  0  0
  5 44  1  0  0  0
  6 45  1  0  0  0
 11 46  1  0  0  0
 11 47  1  0  0  0
 12 48  1  0  0  0
 13 49  1  0  0  0
 13 50  1  0  0  0
 13 51  1  0  0  0
 14 52  1  0  0  0
 14 53  1  0  0  0
 14 54  1  0  0  0
 15 55  1  0  0  0
 15 56  1  0  0  0
 16 57  1  0  0  0
 17 58  1  0  0  0
 18 59  1  0  0  0
 19 60  1  0  0  0
 23 61  1  0  0  0
 24 62  1  0  0  0
 24 63  1  0  0  0
 26 64  1  0  0  0
 28 65  1  0  0  0
 28 66  1  0  0  0
 29 67  1  0  0  0
 30 68  1  0  0  0
 31 69  1  0  0  0
 31 70  1  0  0  0
 32 71  1  0  0  0
 33 72  1  0  0  0
 34 73  1  0  0  0
 35 74  1  0  0  0
 36 75  1  0  0  0
 39 76  1  0  0  0
 39 77  1  0  0  0
 39 78  1  0  0  0
 41 79  1  0  0  0
 41 80  1  0  0  0
 41 81  1  0  0  0
M  END
$$$$
