2i4u_ligand
  -I-interpret- 

 77 80  0  0  0  0  0  0  0  0999 V2000
   11.9330   18.1930   18.5300 C   0  0  0  0  0
   10.9750   18.6370   20.5710 O   0  0  0  0  0
   10.6190   18.1520   19.2640 C   0  0  0  0  0
    9.8740   19.0730   18.4550 O   0  0  0  0  0
   10.2060   18.7610   17.1050 C   0  0  0  0  0
   11.7330   18.5690   17.0690 C   0  0  0  0  0
   12.4130   18.7120   20.6440 C   0  0  0  0  0
   13.0000   18.9550   19.2470 C   0  0  0  0  0
   12.8330   20.3150   18.8840 O   0  0  0  0  0
   13.8740   20.8880   18.2650 C   0  0  0  0  0
   14.9440   20.3500   18.0060 O   0  0  0  0  0
   13.5430   22.1490   17.9530 N   0  0  0  0  0
   14.4850   22.9790   17.2570 C   0  0  0  0  0
   13.8460   23.5490   15.9640 C   0  0  0  0  0
   13.3520   22.4150   15.0700 C   0  0  0  0  0
   14.2680   21.6910   14.2920 C   0  0  0  0  0
   13.8100   20.6370   13.4680 C   0  0  0  0  0
   12.4360   20.3110   13.4270 C   0  0  0  0  0
   11.5200   21.0450   14.2100 C   0  0  0  0  0
   11.9770   22.0960   15.0310 C   0  0  0  0  0
   14.9140   24.1050   18.2130 C   0  0  0  0  0
   13.7690   24.7830   18.7080 O   0  0  0  0  0
   15.7830   25.0870   17.4730 C   0  0  0  0  0
   17.1960   24.7110   17.5250 N   0  0  0  0  0
   17.9350   24.2800   16.0680 S   0  0  0  0  0
   18.6140   22.9370   16.1780 O   0  0  0  0  0
   16.8430   24.0530   15.0510 O   0  0  0  0  0
   18.9290   25.6440   15.5970 C   0  0  0  0  0
   20.2960   25.7120   15.9050 C   0  0  0  0  0
   21.0400   26.8490   15.5280 C   0  0  0  0  0
   20.4160   27.9180   14.8440 C   0  0  0  0  0
   21.1330   29.0680   14.4650 O   0  0  0  0  0
   22.5280   29.0970   14.8130 C   0  0  0  0  0
   19.0520   27.8320   14.5430 C   0  0  0  0  0
   18.3120   26.7050   14.9160 C   0  0  0  0  0
   18.0430   25.0470   18.6850 C   0  0  0  0  0
   17.8500   24.0480   19.8530 C   0  0  0  0  0
   18.8680   24.3740   20.9590 C   0  0  0  0  0
   18.0740   22.6010   19.3740 C   0  0  0  0  0
   12.3357   17.1802   18.5199 H   0  0  0  0  0
   10.0644   17.2230   19.3961 H   0  0  0  0  0
    9.8951   19.5587   16.4304 H   0  0  0  0  0
    9.6897   17.8605   16.7723 H   0  0  0  0  0
   12.0977   17.8423   16.3431 H   0  0  0  0  0
   12.3062   19.4291   16.7230 H   0  0  0  0  0
   12.8008   17.7719   21.0364 H   0  0  0  0  0
   12.6954   19.5362   21.2990 H   0  0  0  0  0
   14.0498   18.7033   19.0962 H   0  0  0  0  0
   12.6266   22.5168   18.2088 H   0  0  0  0  0
   15.3589   22.4017   16.9552 H   0  0  0  0  0
   14.5951   24.1270   15.4229 H   0  0  0  0  0
   13.0006   24.1815   16.2349 H   0  0  0  0  0
   15.3287   21.9400   14.3226 H   0  0  0  0  0
   14.5199   20.0739   12.8621 H   0  0  0  0  0
   12.0852   19.4963   12.7935 H   0  0  0  0  0
   10.4585   20.7993   14.1801 H   0  0  0  0  0
   11.2688   22.6624   15.6358 H   0  0  0  0  0
   15.4678   23.6717   19.0459 H   0  0  0  0  0
   14.0457   25.4835   19.3033 H   0  0  0  0  0
   15.6715   26.0642   17.9428 H   0  0  0  0  0
   15.4709   25.1008   16.4287 H   0  0  0  0  0
   20.7803   24.8905   16.4328 H   0  0  0  0  0
   22.1024   26.9043   15.7652 H   0  0  0  0  0
   22.6328   29.0227   15.8954 H   0  0  0  0  0
   23.0369   28.2577   14.3390 H   0  0  0  0  0
   22.9680   30.0325   14.4675 H   0  0  0  0  0
   18.5624   28.6495   14.0138 H   0  0  0  0  0
   17.2501   26.6505   14.6764 H   0  0  0  0  0
   17.7622   26.0400   19.0359 H   0  0  0  0  0
   19.0855   25.0052   18.3694 H   0  0  0  0  0
   16.8316   24.1380   20.2310 H   0  0  0  0  0
   19.8781   24.2844   20.5592 H   0  0  0  0  0
   18.7048   25.3920   21.3127 H   0  0  0  0  0
   18.7400   23.6757   21.7861 H   0  0  0  0  0
   17.3585   22.3656   18.5862 H   0  0  0  0  0
   19.0882   22.5005   18.9874 H   0  0  0  0  0
   17.9333   21.9168   20.2107 H   0  0  0  0  0
  1  3  1  0  0  0
  1  6  1  0  0  0
  1  8  1  0  0  0
  3  2  1  0  0  0
  2  7  1  0  0  0
  3  4  1  0  0  0
  4  5  1  0  0  0
  5  6  1  0  0  0
  7  8  1  0  0  0
  8  9  1  0  0  0
  9 10  1  0  0  0
 10 11  2  0  0  0
 10 12  1  0  0  0
 12 13  1  0  0  0
 13 14  1  0  0  0
 13 21  1  0  0  0
 14 15  1  0  0  0
 15 16  4  0  0  0
 15 20  4  0  0  0
 16 17  4  0  0  0
 17 18  4  0  0  0
 18 19  4  0  0  0
 19 20  4  0  0  0
 21 22  1  0  0  0
 21 23  1  0  0  0
 23 24  1  0  0  0
 24 25  1  0  0  0
 24 36  1  0  0  0
 25 26  2  0  0  0
 25 27  2  0  0  0
 25 28  1  0  0  0
 28 29  4  0  0  0
 28 35  4  0  0  0
 29 30  4  0  0  0
 30 31  4  0  0  0
 31 32  1  0  0  0
 31 34  4  0  0  0
 32 33  1  0  0  0
 34 35  4  0  0  0
 36 37  1  0  0  0
 37 38  1  0  0  0
 37 39  1  0  0  0
  1 40  1  0  0  0
  3 41  1  0  0  0
  5 42  1  0  0  0
  5 43  1  0  0  0
  6 44  1  0  0  0
  6 45  1  0  0  0
  7 46  1  0  0  0
  7 47  1  0  0  0
  8 48  1  0  0  0
 12 49  1  0  0  0
 13 50  1  0  0  0
 14 51  1  0  0  0
 14 52  1  0  0  0
 16 53  1  0  0  0
 17 54  1  0  0  0
 18 55  1  0  0  0
 19 56  1  0  0  0
 20 57  1  0  0  0
 21 58  1  0  0  0
 22 59  1  0  0  0
 23 60  1  0  0  0
 23 61  1  0  0  0
 29 62  1  0  0  0
 30 63  1  0  0  0
 33 64  1  0  0  0
 33 65  1  0  0  0
 33 66  1  0  0  0
 34 67  1  0  0  0
 35 68  1  0  0  0
 36 69  1  0  0  0
 36 70  1  0  0  0
 37 71  1  0  0  0
 38 72  1  0  0  0
 38 73  1  0  0  0
 38 74  1  0  0  0
 39 75  1  0  0  0
 39 76  1  0  0  0
 39 77  1  0  0  0
M  END
$$$$
