### 
### Created by X-TOOL on Mon Sep 10 21:12:56 2018
### 

@<TRIPOS>MOLECULE
2i4u_ligand
   77    80     1     0     0
SMALL
GAST_HUCK


@<TRIPOS>ATOM
      1 C          11.9330   18.1930   18.5300 C.3       1 DJR         0.0449
      2 O          10.9750   18.6370   20.5710 O.3       1 DJR        -0.3480
      3 C27        10.6190   18.1520   19.2640 C.3       1 DJR         0.1648
      4 O9          9.8740   19.0730   18.4550 O.3       1 DJR        -0.3509
      5 C2         10.2060   18.7610   17.1050 C.3       1 DJR         0.0512
      6 C1         11.7330   18.5690   17.0690 C.3       1 DJR        -0.0191
      7 C3         12.4130   18.7120   20.6440 C.3       1 DJR         0.0815
      8 C5         13.0000   18.9550   19.2470 C.3       1 DJR         0.1189
      9 O4         12.8330   20.3150   18.8840 O.3       1 DJR        -0.2578
     10 C4         13.8740   20.8880   18.2650 C.2       1 DJR         0.3203
     11 O5         14.9440   20.3500   18.0060 O.2       1 DJR        -0.3775
     12 N1         13.5430   22.1490   17.9530 N.am      1 DJR        -0.2550
     13 C6         14.4850   22.9790   17.2570 C.3       1 DJR         0.0807
     14 C8         13.8460   23.5490   15.9640 C.3       1 DJR         0.0064
     15 C9         13.3520   22.4150   15.0700 C.ar      1 DJR        -0.0408
     16 C11        14.2680   21.6910   14.2920 C.ar      1 DJR        -0.0603
     17 C13        13.8100   20.6370   13.4680 C.ar      1 DJR        -0.0686
     18 C14        12.4360   20.3110   13.4270 C.ar      1 DJR        -0.0687
     19 C12        11.5200   21.0450   14.2100 C.ar      1 DJR        -0.0686
     20 C10        11.9770   22.0960   15.0310 C.ar      1 DJR        -0.0603
     21 C7         14.9140   24.1050   18.2130 C.3       1 DJR         0.0967
     22 O6         13.7690   24.7830   18.7080 O.3       1 DJR        -0.3877
     23 C15        15.7830   25.0870   17.4730 C.3       1 DJR         0.0578
     24 N2         17.1960   24.7110   17.5250 N.am      1 DJR        -0.2325
     25 S          17.9350   24.2800   16.0680 S.o2      1 DJR         0.0657
     26 O8         18.6140   22.9370   16.1780 O.2       1 DJR        -0.1515
     27 O7         16.8430   24.0530   15.0510 O.2       1 DJR        -0.1515
     28 C18        18.9290   25.6440   15.5970 C.ar      1 DJR         0.0971
     29 C23        20.2960   25.7120   15.9050 C.ar      1 DJR        -0.0440
     30 C22        21.0400   26.8490   15.5280 C.ar      1 DJR        -0.0313
     31 C21        20.4160   27.9180   14.8440 C.ar      1 DJR         0.0908
     32 O1         21.1330   29.0680   14.4650 O.3       1 DJR        -0.3212
     33 C26        22.5280   29.0970   14.8130 C.3       1 DJR         0.0594
     34 C20        19.0520   27.8320   14.5430 C.ar      1 DJR        -0.0313
     35 C19        18.3120   26.7050   14.9160 C.ar      1 DJR        -0.0440
     36 C16        18.0430   25.0470   18.6850 C.3       1 DJR         0.0319
     37 C17        17.8500   24.0480   19.8530 C.3       1 DJR        -0.0296
     38 C25        18.8680   24.3740   20.9590 C.3       1 DJR        -0.0612
     39 C24        18.0740   22.6010   19.3740 C.3       1 DJR        -0.0612
     40 H1         12.2943   17.1542   18.5141 H         1 DJR         0.0380
     41 H2         10.1441   17.1610   19.3136 H         1 DJR         0.0913
     42 H3          9.9100   19.5854   16.4397 H         1 DJR         0.0561
     43 H4          9.6985   17.8367   16.7918 H         1 DJR         0.0561
     44 H5         12.0355   17.7618   16.3857 H         1 DJR         0.0293
     45 H6         12.2632   19.4946   16.8005 H         1 DJR         0.0293
     46 H7         12.8068   17.7663   21.0446 H         1 DJR         0.0590
     47 H8         12.7009   19.5399   21.3086 H         1 DJR         0.0590
     48 H9         14.0296   18.5961   19.1020 H         1 DJR         0.0675
     49 H10        12.6446   22.5096   18.2038 H         1 DJR         0.1873
     50 H11        15.3667   22.3815   16.9819 H         1 DJR         0.0604
     51 H12        14.5968   24.1396   15.4186 H         1 DJR         0.0449
     52 H13        12.9968   24.1942   16.2334 H         1 DJR         0.0449
     53 H14        15.3229   21.9387   14.3225 H         1 DJR         0.0557
     54 H15        14.5160   20.0770   12.8654 H         1 DJR         0.0599
     55 H16        12.0871   19.5008   12.7970 H         1 DJR         0.0559
     56 H17        10.4643   20.8006   14.1802 H         1 DJR         0.0599
     57 H18        11.2727   22.6593   15.6324 H         1 DJR         0.0557
     58 H19        15.4777   23.6749   19.0540 H         1 DJR         0.0634
     59 H20        14.0429   25.4762   19.2971 H         1 DJR         0.2100
     60 H21        15.6626   26.0815   17.9273 H         1 DJR         0.0504
     61 H22        15.4630   25.1232   16.4212 H         1 DJR         0.0504
     62 H23        20.7777   24.8950   16.4299 H         1 DJR         0.0608
     63 H24        22.0966   26.9040   15.7639 H         1 DJR         0.0542
     64 H25        22.9732   30.0407   14.4648 H         1 DJR         0.0577
     65 H26        23.0428   28.2505   14.3351 H         1 DJR         0.0577
     66 H27        22.6351   29.0221   15.9052 H         1 DJR         0.0577
     67 H28        18.5651   28.6450   14.0167 H         1 DJR         0.0542
     68 H29        17.2559   26.6508   14.6777 H         1 DJR         0.0608
     69 H30        17.7822   26.0568   19.0346 H         1 DJR         0.0480
     70 H31        19.0974   25.0282   18.3722 H         1 DJR         0.0480
     71 H32        16.8288   24.1451   20.2500 H         1 DJR         0.0311
     72 H33        18.7398   23.6699   21.7944 H         1 DJR         0.0233
     73 H34        18.7043   25.4012   21.3169 H         1 DJR         0.0233
     74 H35        19.8879   24.2839   20.5568 H         1 DJR         0.0233
     75 H36        17.3491   22.3605   18.5824 H         1 DJR         0.0233
     76 H37        17.9373   21.9098   20.2187 H         1 DJR         0.0233
     77 H38        19.0955   22.4995   18.9788 H         1 DJR         0.0233
@<TRIPOS>BOND
     1    1    3 1  
     2    1    6 1  
     3    1    8 1  
     4    3    2 1  
     5    2    7 1  
     6    3    4 1  
     7    4    5 1  
     8    5    6 1  
     9    7    8 1  
    10    8    9 1  
    11    9   10 1  
    12   10   11 2  
    13   10   12 am 
    14   12   13 1  
    15   13   14 1  
    16   13   21 1  
    17   14   15 1  
    18   15   16 ar 
    19   15   20 ar 
    20   16   17 ar 
    21   17   18 ar 
    22   18   19 ar 
    23   19   20 ar 
    24   21   22 1  
    25   21   23 1  
    26   23   24 1  
    27   24   25 am 
    28   24   36 1  
    29   25   26 2  
    30   25   27 2  
    31   25   28 1  
    32   28   29 ar 
    33   28   35 ar 
    34   29   30 ar 
    35   30   31 ar 
    36   31   32 1  
    37   31   34 ar 
    38   32   33 1  
    39   34   35 ar 
    40   36   37 1  
    41   37   38 1  
    42   37   39 1  
    43    1   40 1  
    44    3   41 1  
    45    5   42 1  
    46    5   43 1  
    47    6   44 1  
    48    6   45 1  
    49    7   46 1  
    50    7   47 1  
    51    8   48 1  
    52   12   49 1  
    53   13   50 1  
    54   14   51 1  
    55   14   52 1  
    56   16   53 1  
    57   17   54 1  
    58   18   55 1  
    59   19   56 1  
    60   20   57 1  
    61   21   58 1  
    62   22   59 1  
    63   23   60 1  
    64   23   61 1  
    65   29   62 1  
    66   30   63 1  
    67   33   64 1  
    68   33   65 1  
    69   33   66 1  
    70   34   67 1  
    71   35   68 1  
    72   36   69 1  
    73   36   70 1  
    74   37   71 1  
    75   38   72 1  
    76   38   73 1  
    77   38   74 1  
    78   39   75 1  
    79   39   76 1  
    80   39   77 1  
@<TRIPOS>SUBSTRUCTURE
     1 DJR         1

