### 
### Created by X-TOOL on Mon Sep 10 21:12:48 2018
### 

@<TRIPOS>MOLECULE
1g7g_ligand
   77    78     1     0     0
SMALL
GAST_HUCK


@<TRIPOS>ATOM
      1 C1         13.5790   16.7950   11.8960 C.ar      1 INX         0.1017
      2 C2         13.6090   16.5240   10.4880 C.ar      1 INX        -0.0352
      3 C3         12.4450   16.6400    9.6870 C.ar      1 INX        -0.0657
      4 C4         11.2090   17.0440   10.2960 C.ar      1 INX        -0.0457
      5 C5         11.1840   17.3230   11.6890 C.ar      1 INX        -0.0542
      6 C6         12.3130   17.2150   12.5150 C.ar      1 INX         0.0325
      7 C7          9.9530   17.1490    9.5060 C.3       1 INX         0.0170
      8 C8          9.2370   18.4730    9.5770 C.3       1 INX         0.1389
      9 O9         14.7560   16.6440   12.5560 O.3       1 INX        -0.3048
     10 N10         7.9200   18.3490    8.8930 N.am      1 INX        -0.2620
     11 C11        10.0320   19.6340    8.9380 C.2       1 INX         0.2035
     12 C12         7.0620   19.3870    9.0460 C.2       1 INX         0.2061
     13 N13         9.9580   19.5790    7.6060 N.am      1 INX        -0.2849
     14 O14        10.7940   20.3350    9.6680 O.2       1 INX        -0.3944
     15 C15        10.7290   20.2850    6.6170 C.3       1 INX         0.0310
     16 C16        11.8830   19.3290    6.1690 C.3       1 INX        -0.0328
     17 C17        11.2720   17.9250    5.9110 C.3       1 INX        -0.0515
     18 C18        11.5520   17.3940    4.5020 C.3       1 INX        -0.0558
     19 C19        12.5180   16.2080    4.5230 C.3       1 INX        -0.0653
     20 O20         7.2300   20.3300    9.8120 O.2       1 INX        -0.3942
     21 C21         5.6930   19.2860    8.4050 C.3       1 INX         0.1404
     22 N22         4.6980   19.5130    9.4830 N.am      1 INX        -0.2637
     23 C23        15.8550   17.5160   12.6150 C.3       1 INX         0.1221
     24 C24        17.0120   16.7230   13.2630 C.2       1 INX         0.0652
     25 O25        18.1040   17.4340   13.1640 O.co2     1 INX        -0.5662
     26 O26        16.9160   15.6390   13.7600 O.co2     1 INX        -0.5662
     27 C27        12.2000   17.5440   13.9700 C.2       1 INX         0.0567
     28 O28        12.8050   17.0000   14.8380 O.co2     1 INX        -0.5643
     29 O29        11.4270   18.5500   14.2120 O.co2     1 INX        -0.5643
     30 C30         5.6450   20.4210    7.3610 C.3       1 INX         0.0214
     31 C31         4.3310   20.2240    6.6120 C.ar      1 INX        -0.0386
     32 C32         4.3460   19.4330    5.4000 C.ar      1 INX        -0.0601
     33 C33         3.1080   19.2460    4.7040 C.ar      1 INX        -0.0686
     34 C34         1.9280   19.8490    5.2140 C.ar      1 INX        -0.0687
     35 C35         1.9270   20.6200    6.4150 C.ar      1 INX        -0.0686
     36 C36         3.1560   20.8170    7.1510 C.ar      1 INX        -0.0601
     37 C37         3.9130   18.5020    9.9000 C.2       1 INX         0.1800
     38 C38         2.8130   18.7700   10.9250 C.3       1 INX         0.0488
     39 C39         2.0150   17.4970   11.2970 C.3       1 INX         0.0171
     40 C40         0.6860   17.3290   10.5150 C.2       1 INX         0.0370
     41 O41        -0.0370   18.2250   10.1140 O.co2     1 INX        -0.5689
     42 O42         0.3730   16.0180   10.2890 O.co2     1 INX        -0.5689
     43 O43         4.0010   17.3730    9.3520 O.2       1 INX        -0.3968
     44 H1         14.5425   16.2238   10.0259 H         1 INX         0.0534
     45 H2         12.4877   16.4258    8.6252 H         1 INX         0.0553
     46 H3         10.2466   17.6346   12.1355 H         1 INX         0.0562
     47 H4          9.2622   16.3730    9.8674 H         1 INX         0.0453
     48 H5         10.2013   16.9568    8.4518 H         1 INX         0.0453
     49 H6          9.0689   18.7155   10.6367 H         1 INX         0.0821
     50 H7          7.6816   17.5436    8.3503 H         1 INX         0.1885
     51 H8          9.2654   18.9560    7.2424 H         1 INX         0.1851
     52 H9         11.1476   21.2052    7.0505 H         1 INX         0.0520
     53 H10        10.0947   20.5410    5.7555 H         1 INX         0.0520
     54 H11        12.6433   19.2651    6.9614 H         1 INX         0.0285
     55 H12        12.3458   19.7096    5.2466 H         1 INX         0.0285
     56 H13        10.1827   17.9868    6.0511 H         1 INX         0.0266
     57 H14        11.6962   17.2198    6.6409 H         1 INX         0.0266
     58 H15        11.9925   18.2012    3.8984 H         1 INX         0.0263
     59 H16        10.6033   17.0723    4.0477 H         1 INX         0.0263
     60 H17        12.6916   15.8583    3.4946 H         1 INX         0.0230
     61 H18        12.0839   15.3920    5.1194 H         1 INX         0.0230
     62 H19        13.4731   16.5209    4.9700 H         1 INX         0.0230
     63 H20         5.5348   18.3067    7.9296 H         1 INX         0.0823
     64 H21         4.6108   20.4178    9.8998 H         1 INX         0.1884
     65 H22        15.6088   18.3964   13.2267 H         1 INX         0.0784
     66 H23        16.1373   17.8403   11.6025 H         1 INX         0.0784
     67 H24         6.4974   20.3451    6.6699 H         1 INX         0.0474
     68 H25         5.6619   21.4023    7.8577 H         1 INX         0.0474
     69 H26         5.2662   18.9953    5.0302 H         1 INX         0.0557
     70 H27         3.0724   18.6511    3.7985 H         1 INX         0.0599
     71 H28         0.9974   19.7195    4.6734 H         1 INX         0.0559
     72 H29         1.0037   21.0585    6.7759 H         1 INX         0.0599
     73 H30         3.1806   21.3900    8.0708 H         1 INX         0.0557
     74 H31         2.1164   19.5115   10.5069 H         1 INX         0.0520
     75 H32         3.2745   19.1744   11.8379 H         1 INX         0.0520
     76 H33         1.7805   17.5382   12.3709 H         1 INX         0.0455
     77 H34         2.6483   16.6209   11.0933 H         1 INX         0.0455
@<TRIPOS>BOND
     1    1    9 1  
     2    1    6 ar 
     3    1    2 ar 
     4    2    3 ar 
     5    3    4 ar 
     6    4    7 1  
     7    4    5 ar 
     8    5    6 ar 
     9    6   27 1  
    10   27   29 ar 
    11   27   28 ar 
    12    7    8 1  
    13    8   11 1  
    14    8   10 1  
    15   10   12 am 
    16   12   21 1  
    17   12   20 2  
    18   21   30 1  
    19   21   22 1  
    20   22   37 am 
    21   37   43 2  
    22   37   38 1  
    23   38   39 1  
    24   39   40 1  
    25   40   42 ar 
    26   40   41 ar 
    27   30   31 1  
    28   31   36 ar 
    29   31   32 ar 
    30   32   33 ar 
    31   33   34 ar 
    32   34   35 ar 
    33   35   36 ar 
    34   11   14 2  
    35   11   13 am 
    36   13   15 1  
    37   15   16 1  
    38   16   17 1  
    39   17   18 1  
    40   18   19 1  
    41    9   23 1  
    42   23   24 1  
    43   24   26 ar 
    44   24   25 ar 
    45    2   44 1  
    46    3   45 1  
    47    5   46 1  
    48    7   47 1  
    49    7   48 1  
    50    8   49 1  
    51   10   50 1  
    52   13   51 1  
    53   15   52 1  
    54   15   53 1  
    55   16   54 1  
    56   16   55 1  
    57   17   56 1  
    58   17   57 1  
    59   18   58 1  
    60   18   59 1  
    61   19   60 1  
    62   19   61 1  
    63   19   62 1  
    64   21   63 1  
    65   22   64 1  
    66   23   65 1  
    67   23   66 1  
    68   30   67 1  
    69   30   68 1  
    70   32   69 1  
    71   33   70 1  
    72   34   71 1  
    73   35   72 1  
    74   36   73 1  
    75   38   74 1  
    76   38   75 1  
    77   39   76 1  
    78   39   77 1  
@<TRIPOS>SUBSTRUCTURE
     1 INX         1

