1g7g_ligand
  -I-interpret- 

 80 81  0  0  0  0  0  0  0  0999 V2000
   13.5790   16.7950   11.8960 C   0  0  0  0  0
   13.6090   16.5240   10.4880 C   0  0  0  0  0
   12.4450   16.6400    9.6870 C   0  0  0  0  0
   11.2090   17.0440   10.2960 C   0  0  0  0  0
   11.1840   17.3230   11.6890 C   0  0  0  0  0
   12.3130   17.2150   12.5150 C   0  0  0  0  0
    9.9530   17.1490    9.5060 C   0  0  0  0  0
    9.2370   18.4730    9.5770 C   0  0  0  0  0
   14.7560   16.6440   12.5560 O   0  0  0  0  0
    7.9200   18.3490    8.8930 N   0  0  0  0  0
   10.0320   19.6340    8.9380 C   0  0  0  0  0
    7.0620   19.3870    9.0460 C   0  0  0  0  0
    9.9580   19.5790    7.6060 N   0  0  0  0  0
   10.7940   20.3350    9.6680 O   0  0  0  0  0
   10.7290   20.2850    6.6170 C   0  0  0  0  0
   11.8830   19.3290    6.1690 C   0  0  0  0  0
   11.2720   17.9250    5.9110 C   0  0  0  0  0
   11.5520   17.3940    4.5020 C   0  0  0  0  0
   12.5180   16.2080    4.5230 C   0  0  0  0  0
    7.2300   20.3300    9.8120 O   0  0  0  0  0
    5.6930   19.2860    8.4050 C   0  0  0  0  0
    4.6980   19.5130    9.4830 N   0  0  0  0  0
   15.8550   17.5160   12.6150 C   0  0  0  0  0
   17.0120   16.7230   13.2630 C   0  0  0  0  0
   18.1040   17.4340   13.1640 O   0  0  0  0  0
   16.9160   15.6390   13.7600 O   0  0  0  0  0
   12.2000   17.5440   13.9700 C   0  0  0  0  0
   12.8050   17.0000   14.8380 O   0  0  0  0  0
   11.4270   18.5500   14.2120 O   0  0  0  0  0
    5.6450   20.4210    7.3610 C   0  0  0  0  0
    4.3310   20.2240    6.6120 C   0  0  0  0  0
    4.3460   19.4330    5.4000 C   0  0  0  0  0
    3.1080   19.2460    4.7040 C   0  0  0  0  0
    1.9280   19.8490    5.2140 C   0  0  0  0  0
    1.9270   20.6200    6.4150 C   0  0  0  0  0
    3.1560   20.8170    7.1510 C   0  0  0  0  0
    3.9130   18.5020    9.9000 C   0  0  0  0  0
    2.8130   18.7700   10.9250 C   0  0  0  0  0
    2.0150   17.4970   11.2970 C   0  0  0  0  0
    0.6860   17.3290   10.5150 C   0  0  0  0  0
   -0.0370   18.2250   10.1140 O   0  0  0  0  0
    0.3730   16.0180   10.2890 O   0  0  0  0  0
    4.0010   17.3730    9.3520 O   0  0  0  0  0
   14.5477   16.2221   10.0234 H   0  0  0  0  0
   12.4879   16.4246    8.6194 H   0  0  0  0  0
   10.2415   17.6363   12.1380 H   0  0  0  0  0
    9.2685   16.4082    9.9193 H   0  0  0  0  0
   10.2350   17.0090    8.4625 H   0  0  0  0  0
    9.1162   18.7148   10.6330 H   0  0  0  0  0
    7.6769   17.5275    8.3394 H   0  0  0  0  0
    9.2516   18.9435    7.2351 H   0  0  0  0  0
   11.1325   21.2094    7.0302 H   0  0  0  0  0
   10.1053   20.5615    5.7669 H   0  0  0  0  0
   12.6456   19.2704    6.9456 H   0  0  0  0  0
   12.3535   19.7070    5.2613 H   0  0  0  0  0
   10.1911   18.0098    6.0230 H   0  0  0  0  0
   11.7247   17.2325    6.6207 H   0  0  0  0  0
   12.0056   18.1949    3.9181 H   0  0  0  0  0
   10.6094   17.0603    4.0682 H   0  0  0  0  0
   13.4639   16.5193    4.9662 H   0  0  0  0  0
   12.0867   15.4002    5.1142 H   0  0  0  0  0
   12.6892   15.8624    3.5035 H   0  0  0  0  0
    5.4898   18.3262    7.9301 H   0  0  0  0  0
    4.6090   20.4359    9.9082 H   0  0  0  0  0
   15.6164   18.4047   13.1993 H   0  0  0  0  0
   16.1305   17.8637   11.6193 H   0  0  0  0  0
   17.9055   18.2636   12.7236 H   0  0  0  0  0
   11.0288   18.8507   13.3919 H   0  0  0  0  0
    6.5006   20.3823    6.6868 H   0  0  0  0  0
    5.6945   21.4023    7.8329 H   0  0  0  0  0
    5.2713   18.9929    5.0281 H   0  0  0  0  0
    3.0722   18.6478    3.7935 H   0  0  0  0  0
    0.9922   19.7188    4.6704 H   0  0  0  0  0
    0.9986   21.0609    6.7779 H   0  0  0  0  0
    3.1808   21.3932    8.0759 H   0  0  0  0  0
    2.1159   19.4843   10.4869 H   0  0  0  0  0
    3.2870   19.1435   11.8327 H   0  0  0  0  0
    1.7589   17.5751   12.3536 H   0  0  0  0  0
    2.6430   16.6405   11.0519 H   0  0  0  0  0
    1.0509   15.4575   10.6736 H   0  0  0  0  0
  1  9  1  0  0  0
  1  6  4  0  0  0
  1  2  4  0  0  0
  2  3  4  0  0  0
  3  4  4  0  0  0
  4  7  1  0  0  0
  4  5  4  0  0  0
  5  6  4  0  0  0
  6 27  1  0  0  0
 27 29  1  0  0  0
 27 28  2  0  0  0
  7  8  1  0  0  0
  8 11  1  0  0  0
  8 10  1  0  0  0
 10 12  1  0  0  0
 12 21  1  0  0  0
 12 20  2  0  0  0
 21 30  1  0  0  0
 21 22  1  0  0  0
 22 37  1  0  0  0
 37 43  2  0  0  0
 37 38  1  0  0  0
 38 39  1  0  0  0
 39 40  1  0  0  0
 40 42  1  0  0  0
 40 41  2  0  0  0
 30 31  1  0  0  0
 31 36  4  0  0  0
 31 32  4  0  0  0
 32 33  4  0  0  0
 33 34  4  0  0  0
 34 35  4  0  0  0
 35 36  4  0  0  0
 11 14  2  0  0  0
 11 13  1  0  0  0
 13 15  1  0  0  0
 15 16  1  0  0  0
 16 17  1  0  0  0
 17 18  1  0  0  0
 18 19  1  0  0  0
  9 23  1  0  0  0
 23 24  1  0  0  0
 24 26  2  0  0  0
 24 25  1  0  0  0
  2 44  1  0  0  0
  3 45  1  0  0  0
  5 46  1  0  0  0
  7 47  1  0  0  0
  7 48  1  0  0  0
  8 49  1  0  0  0
 10 50  1  0  0  0
 13 51  1  0  0  0
 15 52  1  0  0  0
 15 53  1  0  0  0
 16 54  1  0  0  0
 16 55  1  0  0  0
 17 56  1  0  0  0
 17 57  1  0  0  0
 18 58  1  0  0  0
 18 59  1  0  0  0
 19 60  1  0  0  0
 19 61  1  0  0  0
 19 62  1  0  0  0
 21 63  1  0  0  0
 22 64  1  0  0  0
 23 65  1  0  0  0
 23 66  1  0  0  0
 25 67  1  0  0  0
 29 68  1  0  0  0
 30 69  1  0  0  0
 30 70  1  0  0  0
 32 71  1  0  0  0
 33 72  1  0  0  0
 34 73  1  0  0  0
 35 74  1  0  0  0
 36 75  1  0  0  0
 38 76  1  0  0  0
 38 77  1  0  0  0
 39 78  1  0  0  0
 39 79  1  0  0  0
 42 80  1  0  0  0
M  END
$$$$
