### 
### Created by X-TOOL on Mon Sep 10 21:13:07 2018
### 

@<TRIPOS>MOLECULE
3ueu_ligand
   37    36     1     0     0
SMALL
GAST_HUCK


@<TRIPOS>ATOM
      1 O1         -1.2720    3.8380   19.2090 O.co2     1 DAO        -0.5690
      2 O2         -0.2330    5.7140   19.5840 O.co2     1 DAO        -0.5690
      3 C1         -1.2780    5.0930   19.2850 C.2       1 DAO         0.0348
      4 C2         -2.5650    5.8580   18.9950 C.3       1 DAO         0.0002
      5 C3         -2.6420    7.2130   19.7060 C.3       1 DAO        -0.0414
      6 C4         -3.2850    8.2950   18.8260 C.3       1 DAO        -0.0516
      7 C5         -2.5580    9.6320   18.9390 C.3       1 DAO        -0.0530
      8 C6         -3.2940   10.7800   18.2650 C.3       1 DAO        -0.0531
      9 C7         -2.6480   12.1070   18.6760 C.3       1 DAO        -0.0531
     10 C8         -3.3440   13.3150   18.0570 C.3       1 DAO        -0.0531
     11 C9         -2.3690   14.4290   17.7340 C.3       1 DAO        -0.0531
     12 C10        -2.9890   15.8240   17.8320 C.3       1 DAO        -0.0533
     13 C11        -3.5540   16.2650   16.4980 C.3       1 DAO        -0.0559
     14 C12        -3.7430   17.7620   16.4840 C.3       1 DAO        -0.0653
     15 H1         -3.4168    5.2438   19.3224 H         1 DAO         0.0430
     16 H2         -2.6318    6.0293   17.9105 H         1 DAO         0.0430
     17 H3         -1.6233    7.5319   19.9717 H         1 DAO         0.0283
     18 H4         -3.2411    7.0990   20.6215 H         1 DAO         0.0283
     19 H5         -4.3306    8.4320   19.1390 H         1 DAO         0.0266
     20 H6         -3.2566    7.9631   17.7777 H         1 DAO         0.0266
     21 H7         -1.5676    9.5307   18.4713 H         1 DAO         0.0265
     22 H8         -2.4370    9.8739   20.0052 H         1 DAO         0.0265
     23 H9         -4.3490   10.7731   18.5762 H         1 DAO         0.0265
     24 H10        -3.2331   10.6646   17.1728 H         1 DAO         0.0265
     25 H11        -1.5967   12.1022   18.3524 H         1 DAO         0.0265
     26 H12        -2.6941   12.1969   19.7713 H         1 DAO         0.0265
     27 H13        -4.0942   13.6945   18.7663 H         1 DAO         0.0265
     28 H14        -3.8432   13.0000   17.1288 H         1 DAO         0.0265
     29 H15        -1.9992   14.2827   16.7084 H         1 DAO         0.0265
     30 H16        -1.5268   14.3711   18.4392 H         1 DAO         0.0265
     31 H17        -2.2157   16.5393   18.1486 H         1 DAO         0.0265
     32 H18        -3.7985   15.8058   18.5765 H         1 DAO         0.0265
     33 H19        -4.5247   15.7743   16.3339 H         1 DAO         0.0263
     34 H20        -2.8581   15.9787   15.6956 H         1 DAO         0.0263
     35 H21        -4.1534   18.0706   15.5112 H         1 DAO         0.0230
     36 H22        -2.7734   18.2556   16.6461 H         1 DAO         0.0230
     37 H23        -4.4400   18.0511   17.2844 H         1 DAO         0.0230
@<TRIPOS>BOND
     1    1    3 ar 
     2    3    2 ar 
     3    3    4 1  
     4    4    5 1  
     5    5    6 1  
     6    6    7 1  
     7    7    8 1  
     8    8    9 1  
     9    9   10 1  
    10   10   11 1  
    11   11   12 1  
    12   12   13 1  
    13   13   14 1  
    14    4   15 1  
    15    4   16 1  
    16    5   17 1  
    17    5   18 1  
    18    6   19 1  
    19    6   20 1  
    20    7   21 1  
    21    7   22 1  
    22    8   23 1  
    23    8   24 1  
    24    9   25 1  
    25    9   26 1  
    26   10   27 1  
    27   10   28 1  
    28   11   29 1  
    29   11   30 1  
    30   12   31 1  
    31   12   32 1  
    32   13   33 1  
    33   13   34 1  
    34   14   35 1  
    35   14   36 1  
    36   14   37 1  
@<TRIPOS>SUBSTRUCTURE
     1 DAO         1

