3ueu_ligand
  -I-interpret- 

 38 37  0  0  0  0  0  0  0  0999 V2000
   -1.2720    3.8380   19.2090 O   0  0  0  0  0
   -0.2330    5.7140   19.5840 O   0  0  0  0  0
   -1.2780    5.0930   19.2850 C   0  0  0  0  0
   -2.5650    5.8580   18.9950 C   0  0  0  0  0
   -2.6420    7.2130   19.7060 C   0  0  0  0  0
   -3.2850    8.2950   18.8260 C   0  0  0  0  0
   -2.5580    9.6320   18.9390 C   0  0  0  0  0
   -3.2940   10.7800   18.2650 C   0  0  0  0  0
   -2.6480   12.1070   18.6760 C   0  0  0  0  0
   -3.3440   13.3150   18.0570 C   0  0  0  0  0
   -2.3690   14.4290   17.7340 C   0  0  0  0  0
   -2.9890   15.8240   17.8320 C   0  0  0  0  0
   -3.5540   16.2650   16.4980 C   0  0  0  0  0
   -3.7430   17.7620   16.4840 C   0  0  0  0  0
   -2.1491    3.5287   18.9711 H   0  0  0  0  0
   -3.3958    5.2509   19.3547 H   0  0  0  0  0
   -2.5993    6.0479   17.9222 H   0  0  0  0  0
   -1.6263    7.5291   19.9439 H   0  0  0  0  0
   -3.2561    7.0930   20.5985 H   0  0  0  0  0
   -4.3133    8.4375   19.1584 H   0  0  0  0  0
   -3.2324    7.9655   17.7883 H   0  0  0  0  0
   -1.5936    9.5241   18.4427 H   0  0  0  0  0
   -2.4758    9.8722   19.9990 H   0  0  0  0  0
   -4.3399   10.7730   18.5720 H   0  0  0  0  0
   -3.2351   10.6655   17.1826 H   0  0  0  0  0
   -1.6154   12.0996   18.3269 H   0  0  0  0  0
   -2.7236   12.1953   19.7598 H   0  0  0  0  0
   -4.0696   13.6953   18.7759 H   0  0  0  0  0
   -3.8171   12.9965   17.1281 H   0  0  0  0  0
   -2.0369   14.2879   16.7055 H   0  0  0  0  0
   -1.5579   14.3775   18.4604 H   0  0  0  0  0
   -2.2144   16.5294   18.1329 H   0  0  0  0  0
   -3.7987   15.7952   18.5612 H   0  0  0  0  0
   -4.5180   15.7813   16.3404 H   0  0  0  0  0
   -2.8601   15.9847   15.7055 H   0  0  0  0  0
   -4.4338   18.0472   17.2775 H   0  0  0  0  0
   -2.7816   18.2498   16.6448 H   0  0  0  0  0
   -4.1497   18.0666   15.5197 H   0  0  0  0  0
  1  3  1  0  0  0
  3  2  2  0  0  0
  3  4  1  0  0  0
  4  5  1  0  0  0
  5  6  1  0  0  0
  6  7  1  0  0  0
  7  8  1  0  0  0
  8  9  1  0  0  0
  9 10  1  0  0  0
 10 11  1  0  0  0
 11 12  1  0  0  0
 12 13  1  0  0  0
 13 14  1  0  0  0
  1 15  1  0  0  0
  4 16  1  0  0  0
  4 17  1  0  0  0
  5 18  1  0  0  0
  5 19  1  0  0  0
  6 20  1  0  0  0
  6 21  1  0  0  0
  7 22  1  0  0  0
  7 23  1  0  0  0
  8 24  1  0  0  0
  8 25  1  0  0  0
  9 26  1  0  0  0
  9 27  1  0  0  0
 10 28  1  0  0  0
 10 29  1  0  0  0
 11 30  1  0  0  0
 11 31  1  0  0  0
 12 32  1  0  0  0
 12 33  1  0  0  0
 13 34  1  0  0  0
 13 35  1  0  0  0
 14 36  1  0  0  0
 14 37  1  0  0  0
 14 38  1  0  0  0
M  END
$$$$
