5tp0_ligand
  -I-interpret- 

 19 19  0  0  0  0  0  0  0  0999 V2000
    3.9250   -3.8360  -12.0270 C   0  0  0  0  0
    4.7150   -3.2890  -11.0820 C   0  0  0  0  0
    4.4250   -3.2950   -9.7540 C   0  0  0  0  0
    3.1740   -3.7280   -9.3300 C   0  0  0  0  0
    2.2930   -4.2520  -10.2430 C   0  0  0  0  0
    2.6780   -4.3210  -11.6030 C   0  0  0  0  0
    2.7630   -3.6380   -7.9320 C   0  0  0  0  0
    1.4970   -3.9420   -7.5620 N   0  0  0  0  0
    3.6120   -3.2850   -7.0280 N   0  0  0  0  0
    4.3410   -3.8920  -13.2990 N   0  0  0  0  0
    3.3260   -4.0150  -14.1250 N   0  0  0  0  0
    5.6421   -2.8132  -11.4018 H   0  0  0  0  0
    5.1670   -2.9631   -9.0278 H   0  0  0  0  0
    1.3132   -4.6090   -9.9257 H   0  0  0  0  0
    1.9957   -4.7575  -12.3324 H   0  0  0  0  0
    1.2263   -3.8901   -6.5799 H   0  0  0  0  0
    0.8137   -4.2230   -8.2652 H   0  0  0  0  0
    3.3258   -3.2380   -6.0501 H   0  0  0  0  0
    2.3741   -4.0551  -13.7608 H   0  0  0  0  0
  1  2  4  0  0  0
  1  6  4  0  0  0
  1 10  1  0  0  0
  2  3  4  0  0  0
  3  4  4  0  0  0
  4  5  4  0  0  0
  4  7  1  0  0  0
  5  6  4  0  0  0
  7  8  1  0  0  0
  7  9  2  0  0  0
 10 11  2  0  0  0
  2 12  1  0  0  0
  3 13  1  0  0  0
  5 14  1  0  0  0
  6 15  1  0  0  0
  8 16  1  0  0  0
  8 17  1  0  0  0
  9 18  1  0  0  0
 11 19  1  0  0  0
M  END
$$$$
