### 
### Created by X-TOOL on Mon Sep 10 21:13:30 2018
### 

@<TRIPOS>MOLECULE
5tp0_ligand
   20    20     1     0     0
SMALL
GAST_HUCK


@<TRIPOS>ATOM
      1 C1          3.9250   -3.8360  -12.0270 C.ar      1 BRN         0.0889
      2 C2          4.7150   -3.2890  -11.0820 C.ar      1 BRN        -0.0291
      3 C3          4.4250   -3.2950   -9.7540 C.ar      1 BRN        -0.0487
      4 C4          3.1740   -3.7280   -9.3300 C.ar      1 BRN         0.0315
      5 C5          2.2930   -4.2520  -10.2430 C.ar      1 BRN        -0.0487
      6 C6          2.6780   -4.3210  -11.6030 C.ar      1 BRN        -0.0291
      7 C7          2.7630   -3.6380   -7.9320 C.cat     1 BRN         0.2385
      8 NA          1.4970   -3.9420   -7.5620 N.pl3     1 BRN        -0.2716
      9 NB          3.6120   -3.2850   -7.0280 N.pl3     1 BRN        -0.2716
     10 N1          4.3410   -3.8920  -13.2990 N.2       1 BRN        -0.1674
     11 N           3.3260   -4.0150  -14.1250 N.2       1 BRN        -0.2227
     12 H1          5.6370   -2.8159  -11.4000 H         1 BRN         0.0687
     13 H2          5.1630   -2.9650   -9.0318 H         1 BRN         0.0633
     14 H3          1.3186   -4.6070   -9.9275 H         1 BRN         0.0633
     15 H4          1.9995   -4.7551  -12.3284 H         1 BRN         0.0687
     16 H5          1.2194   -3.8745   -6.5724 H         1 BRN         0.3181
     17 H6          0.8112   -4.2408   -8.2700 H         1 BRN         0.3181
     18 H7          4.5792   -3.0505   -7.2934 H         1 BRN         0.3181
     19 H8          3.3230   -3.2375   -6.0405 H         1 BRN         0.3181
     20 H9          3.4883   -4.0697  -15.1183 H         1 BRN         0.1933
@<TRIPOS>BOND
     1    1    2 ar 
     2    1    6 ar 
     3    1   10 1  
     4    2    3 ar 
     5    3    4 ar 
     6    4    5 ar 
     7    4    7 1  
     8    5    6 ar 
     9    7    8 ar 
    10    7    9 ar 
    11   10   11 2  
    12    2   12 1  
    13    3   13 1  
    14    5   14 1  
    15    6   15 1  
    16    8   16 1  
    17    8   17 1  
    18    9   18 1  
    19    9   19 1  
    20   11   20 1  
@<TRIPOS>SUBSTRUCTURE
     1 BRN         1

