### 
### Created by X-TOOL on Mon Sep 10 21:13:07 2018
### 

@<TRIPOS>MOLECULE
3b1m_ligand
   65    69     1     0     0
SMALL
GAST_HUCK


@<TRIPOS>ATOM
      1 C1         15.7740   50.8300   64.6170 C.2       1 KRC         0.1144
      2 C2         16.1630   51.3720   63.4670 C.2       1 KRC         0.1602
      3 C3         15.9890   50.6360   62.1930 C.2       1 KRC         0.0476
      4 C4         15.2070   49.5540   62.1390 C.2       1 KRC         0.0784
      5 C5         14.9780   48.7110   63.3990 C.3       1 KRC         0.0193
      6 C6         14.8810   49.6450   64.6160 C.2       1 KRC         0.1009
      7 O7         14.4690   48.9240   61.2220 O.3       1 KRC        -0.2538
      8 C8         13.4550   48.1580   61.7360 C.ar      1 KRC         0.1375
      9 C9         13.6810   47.9700   63.1160 C.ar      1 KRC        -0.0237
     10 C10        12.3410   47.5920   61.1330 C.ar      1 KRC         0.1225
     11 C11        11.4420   46.8460   61.8930 C.ar      1 KRC         0.1211
     12 C12        11.6630   46.6650   63.2530 C.ar      1 KRC         0.0141
     13 C13        12.7740   47.2230   63.8640 C.ar      1 KRC         0.0922
     14 O14        14.1550   49.4080   65.5780 O.2       1 KRC        -0.3389
     15 O15        12.9800   47.0320   65.2130 O.3       1 KRC        -0.3190
     16 O16        10.3340   46.2800   61.2970 O.3       1 KRC        -0.3058
     17 C17        12.1040   47.7790   59.6940 C.2       1 KRC         0.1951
     18 N18        10.8360   47.9200   59.2710 N.am      1 KRC        -0.2800
     19 C19        16.1410   47.7400   63.5900 C.3       1 KRC        -0.1142
     20 O20        13.0450   47.7900   58.9090 O.2       1 KRC        -0.3994
     21 C21        16.2490   51.3830   65.9010 C.2       1 KRC         0.1356
     22 O22        16.7400   52.5980   63.4560 O.3       1 KRC        -0.3083
     23 C23        17.7510   51.5090   66.1720 C.3       1 KRC         0.0097
     24 O24        15.4430   51.7390   66.7480 O.2       1 KRC        -0.3829
     25 C25         9.1820   45.7330   61.8970 C.3       1 KRC         0.0663
     26 C26        10.5550   48.0910   57.8540 C.3       1 KRC         0.0616
     27 C27         9.1190   48.5030   57.6710 C.ar      1 KRC        -0.0105
     28 C28         8.7890   49.8260   57.3350 C.ar      1 KRC        -0.0394
     29 C29         7.4490   50.1980   57.1720 C.ar      1 KRC        -0.0658
     30 C30         6.4310   49.2540   57.3420 C.ar      1 KRC        -0.0657
     31 C31         6.7490   47.9530   57.6720 C.ar      1 KRC        -0.0284
     32 C32         8.0920   47.5690   57.8380 C.ar      1 KRC        -0.0177
     33 C33         5.7310   47.0340   57.8370 C.ar      1 KRC        -0.0596
     34 C34         6.0340   45.7080   58.1710 C.ar      1 KRC        -0.0651
     35 C35         7.3670   45.3190   58.3370 C.ar      1 KRC        -0.0650
     36 C36         8.3970   46.2550   58.1690 C.ar      1 KRC        -0.0584
     37 C37         9.8750   50.8470   57.1500 C.3       1 KRC        -0.0255
     38 C38        10.3990   50.8580   55.7130 C.3       1 KRC        -0.0568
     39 H1         16.5015   50.9789   61.2954 H         1 KRC         0.1057
     40 H2         10.9613   46.0832   63.8397 H         1 KRC         0.0463
     41 H3         13.7783   47.4748   65.4761 H         1 KRC         0.2595
     42 H4         10.0850   47.9073   59.9311 H         1 KRC         0.1860
     43 H5         17.0620   48.3064   63.7925 H         1 KRC         0.0000
     44 H6         16.2723   47.1409   62.6768 H         1 KRC         0.0000
     45 H7         15.9266   47.0733   64.4383 H         1 KRC         0.0000
     46 H8         17.6192   52.5298   63.1026 H         1 KRC         0.2583
     47 H9         17.9083   51.9385   67.1724 H         1 KRC         0.0444
     48 H10        18.2063   52.1652   65.4156 H         1 KRC         0.0444
     49 H11        18.2172   50.5139   66.1227 H         1 KRC         0.0444
     50 H12         8.4987   45.3699   61.1152 H         1 KRC         0.0593
     51 H13         8.6774   46.5064   62.4946 H         1 KRC         0.0593
     52 H14         9.4707   44.8957   62.5494 H         1 KRC         0.0593
     53 H15        10.7334   47.1415   57.3280 H         1 KRC         0.0672
     54 H16        11.2145   48.8685   57.4411 H         1 KRC         0.0672
     55 H17         7.1998   51.2207   56.9133 H         1 KRC         0.0562
     56 H18         5.3944   49.5442   57.2147 H         1 KRC         0.0540
     57 H19         4.6987   47.3388   57.7081 H         1 KRC         0.0604
     58 H20         5.2370   44.9848   58.3006 H         1 KRC         0.0597
     59 H21         7.6039   44.2933   58.5957 H         1 KRC         0.0595
     60 H22         9.4303   45.9536   58.2973 H         1 KRC         0.0609
     61 H23        10.7060   50.6116   57.8311 H         1 KRC         0.0403
     62 H24         9.4739   51.8424   57.3912 H         1 KRC         0.0403
     63 H25        11.1904   51.6160   55.6171 H         1 KRC         0.0250
     64 H26         9.5757   51.0985   55.0243 H         1 KRC         0.0250
     65 H27        10.8078   49.8676   55.4642 H         1 KRC         0.0250
@<TRIPOS>BOND
     1    1    2 2  
     2    1    6 1  
     3    1   21 1  
     4    2    3 1  
     5    2   22 1  
     6    3    4 2  
     7    4    5 1  
     8    4    7 1  
     9    5    6 1  
    10    5    9 1  
    11    5   19 1  
    12    6   14 2  
    13    7    8 1  
    14    8    9 ar 
    15    8   10 ar 
    16    9   13 ar 
    17   10   11 ar 
    18   10   17 1  
    19   11   12 ar 
    20   11   16 1  
    21   12   13 ar 
    22   13   15 1  
    23   16   25 1  
    24   17   18 am 
    25   17   20 2  
    26   18   26 1  
    27   21   23 1  
    28   21   24 2  
    29   26   27 1  
    30   27   28 ar 
    31   27   32 ar 
    32   28   29 ar 
    33   28   37 1  
    34   29   30 ar 
    35   30   31 ar 
    36   31   32 ar 
    37   31   33 ar 
    38   32   36 ar 
    39   33   34 ar 
    40   34   35 ar 
    41   35   36 ar 
    42   37   38 1  
    43    3   39 1  
    44   12   40 1  
    45   15   41 1  
    46   18   42 1  
    47   19   43 1  
    48   19   44 1  
    49   19   45 1  
    50   22   46 1  
    51   23   47 1  
    52   23   48 1  
    53   23   49 1  
    54   25   50 1  
    55   25   51 1  
    56   25   52 1  
    57   26   53 1  
    58   26   54 1  
    59   29   55 1  
    60   30   56 1  
    61   33   57 1  
    62   34   58 1  
    63   35   59 1  
    64   36   60 1  
    65   37   61 1  
    66   37   62 1  
    67   38   63 1  
    68   38   64 1  
    69   38   65 1  
@<TRIPOS>SUBSTRUCTURE
     1 KRC         1

