3b1m_ligand
  -I-interpret- 

 65 69  0  0  0  0  0  0  0  0999 V2000
   15.7740   50.8300   64.6170 C   0  0  0  0  0
   16.1630   51.3720   63.4670 C   0  0  0  0  0
   15.9890   50.6360   62.1930 C   0  0  0  0  0
   15.2070   49.5540   62.1390 C   0  0  0  0  0
   14.9780   48.7110   63.3990 C   0  0  0  0  0
   14.8810   49.6450   64.6160 C   0  0  0  0  0
   14.4690   48.9240   61.2220 O   0  0  0  0  0
   13.4550   48.1580   61.7360 C   0  0  0  0  0
   13.6810   47.9700   63.1160 C   0  0  0  0  0
   12.3410   47.5920   61.1330 C   0  0  0  0  0
   11.4420   46.8460   61.8930 C   0  0  0  0  0
   11.6630   46.6650   63.2530 C   0  0  0  0  0
   12.7740   47.2230   63.8640 C   0  0  0  0  0
   14.1550   49.4080   65.5780 O   0  0  0  0  0
   12.9800   47.0320   65.2130 O   0  0  0  0  0
   10.3340   46.2800   61.2970 O   0  0  0  0  0
   12.1040   47.7790   59.6940 C   0  0  0  0  0
   10.8360   47.9200   59.2710 N   0  0  0  0  0
   16.1410   47.7400   63.5900 C   0  0  0  0  0
   13.0450   47.7900   58.9090 O   0  0  0  0  0
   16.2490   51.3830   65.9010 C   0  0  0  0  0
   16.7400   52.5980   63.4560 O   0  0  0  0  0
   17.7510   51.5090   66.1720 C   0  0  0  0  0
   15.4430   51.7390   66.7480 O   0  0  0  0  0
    9.1820   45.7330   61.8970 C   0  0  0  0  0
   10.5550   48.0910   57.8540 C   0  0  0  0  0
    9.1190   48.5030   57.6710 C   0  0  0  0  0
    8.7890   49.8260   57.3350 C   0  0  0  0  0
    7.4490   50.1980   57.1720 C   0  0  0  0  0
    6.4310   49.2540   57.3420 C   0  0  0  0  0
    6.7490   47.9530   57.6720 C   0  0  0  0  0
    8.0920   47.5690   57.8380 C   0  0  0  0  0
    5.7310   47.0340   57.8370 C   0  0  0  0  0
    6.0340   45.7080   58.1710 C   0  0  0  0  0
    7.3670   45.3190   58.3370 C   0  0  0  0  0
    8.3970   46.2550   58.1690 C   0  0  0  0  0
    9.8750   50.8470   57.1500 C   0  0  0  0  0
   10.3990   50.8580   55.7130 C   0  0  0  0  0
   16.5019   50.9792   61.2946 H   0  0  0  0  0
   10.9574   46.0800   63.8429 H   0  0  0  0  0
   12.2669   46.4990   65.5722 H   0  0  0  0  0
   10.0699   47.9071   59.9443 H   0  0  0  0  0
   15.9273   47.0800   64.4307 H   0  0  0  0  0
   16.2700   47.1470   62.6846 H   0  0  0  0  0
   17.0529   48.3023   63.7906 H   0  0  0  0  0
   16.9589   52.8393   62.5530 H   0  0  0  0  0
   18.0002   52.5550   66.3505 H   0  0  0  0  0
   18.0115   50.9173   67.0496 H   0  0  0  0  0
   18.3066   51.1441   65.3082 H   0  0  0  0  0
    9.4694   44.9036   62.5432 H   0  0  0  0  0
    8.6830   46.5003   62.4889 H   0  0  0  0  0
    8.5058   45.3736   61.1214 H   0  0  0  0  0
   10.7312   47.1497   57.3334 H   0  0  0  0  0
   11.2082   48.8620   57.4454 H   0  0  0  0  0
    7.1984   51.2264   56.9118 H   0  0  0  0  0
    5.3886   49.5458   57.2140 H   0  0  0  0  0
    4.6930   47.3405   57.7074 H   0  0  0  0  0
    5.2326   44.9808   58.3013 H   0  0  0  0  0
    7.6052   44.2876   58.5971 H   0  0  0  0  0
    9.4360   45.9519   58.2980 H   0  0  0  0  0
   10.7008   50.5958   57.8157 H   0  0  0  0  0
    9.4639   51.8313   57.3741 H   0  0  0  0  0
   10.8037   49.8761   55.4677 H   0  0  0  0  0
    9.5823   51.0963   55.0316 H   0  0  0  0  0
   11.1831   51.6094   55.6193 H   0  0  0  0  0
  1  2  2  0  0  0
  1  6  1  0  0  0
  1 21  1  0  0  0
  2  3  1  0  0  0
  2 22  1  0  0  0
  3  4  2  0  0  0
  4  5  1  0  0  0
  4  7  1  0  0  0
  5  6  1  0  0  0
  5  9  1  0  0  0
  5 19  1  0  0  0
  6 14  2  0  0  0
  7  8  1  0  0  0
  8  9  4  0  0  0
  8 10  4  0  0  0
  9 13  4  0  0  0
 10 11  4  0  0  0
 10 17  1  0  0  0
 11 12  4  0  0  0
 11 16  1  0  0  0
 12 13  4  0  0  0
 13 15  1  0  0  0
 16 25  1  0  0  0
 17 18  1  0  0  0
 17 20  2  0  0  0
 18 26  1  0  0  0
 21 23  1  0  0  0
 21 24  2  0  0  0
 26 27  1  0  0  0
 27 28  4  0  0  0
 27 32  4  0  0  0
 28 29  4  0  0  0
 28 37  1  0  0  0
 29 30  4  0  0  0
 30 31  4  0  0  0
 31 32  4  0  0  0
 31 33  4  0  0  0
 32 36  4  0  0  0
 33 34  4  0  0  0
 34 35  4  0  0  0
 35 36  4  0  0  0
 37 38  1  0  0  0
  3 39  1  0  0  0
 12 40  1  0  0  0
 15 41  1  0  0  0
 18 42  1  0  0  0
 19 43  1  0  0  0
 19 44  1  0  0  0
 19 45  1  0  0  0
 22 46  1  0  0  0
 23 47  1  0  0  0
 23 48  1  0  0  0
 23 49  1  0  0  0
 25 50  1  0  0  0
 25 51  1  0  0  0
 25 52  1  0  0  0
 26 53  1  0  0  0
 26 54  1  0  0  0
 29 55  1  0  0  0
 30 56  1  0  0  0
 33 57  1  0  0  0
 34 58  1  0  0  0
 35 59  1  0  0  0
 36 60  1  0  0  0
 37 61  1  0  0  0
 37 62  1  0  0  0
 38 63  1  0  0  0
 38 64  1  0  0  0
 38 65  1  0  0  0
M  END
$$$$
