### 
### Created by X-TOOL on Mon Sep 10 21:13:10 2018
### 

@<TRIPOS>MOLECULE
3vha_ligand
   48    51     1     0     0
SMALL
GAST_HUCK


@<TRIPOS>ATOM
      1 C1         10.6710    0.6660   15.0620 C.ar      1 VHA        -0.0261
      2 C2          9.7530    0.7800   14.0090 C.ar      1 VHA        -0.0047
      3 C3          9.0420   -0.3480   13.5710 C.ar      1 VHA        -0.0415
      4 C4          8.0170   -0.3130   12.4370 C.3       1 VHA        -0.0328
      5 C5          9.2630   -1.5880   14.2050 C.ar      1 VHA        -0.0635
      6 C6         10.1750   -1.6740   15.2540 C.ar      1 VHA        -0.0356
      7 C7         10.9100   -0.5610   15.6830 C.ar      1 VHA         0.0882
      8 O8         11.8550   -0.6730   16.6980 O.3       1 VHA        -0.3217
      9 C9         12.6470    0.5230   17.0110 C.3       1 VHA         0.0690
     10 C10        13.8990    0.3440   17.9110 C.3       1 VHA        -0.0229
     11 C11        14.6440    1.6670   18.1740 C.3       1 VHA        -0.0227
     12 C12        15.3280    2.2060   16.9100 C.3       1 VHA         0.0703
     13 O13        14.2640    3.0010   16.2940 O.3       1 VHA        -0.3196
     14 C14        14.4350    3.4040   15.0120 C.ar      1 VHA         0.0858
     15 C15        13.3100    3.9630   14.4080 C.ar      1 VHA        -0.0188
     16 C16        15.6460    3.3530   14.3030 C.ar      1 VHA        -0.0396
     17 C17        15.7120    3.8060   12.9860 C.ar      1 VHA        -0.0758
     18 C18        14.5750    4.3760   12.3860 C.ar      1 VHA        -0.0579
     19 C19        13.3860    4.4080   13.0890 C.ar      1 VHA         0.0261
     20 S20        11.9910    5.1090   12.2690 S.3       1 VHA        -0.0211
     21 C21        10.6160    4.0910   12.6710 C.ar      1 VHA         0.1011
     22 N22         9.4380    4.6640   12.5320 N.ar      1 VHA        -0.2460
     23 C23        10.7550    2.7790   13.1230 C.ar      1 VHA        -0.0068
     24 C24         9.6180    2.0690   13.4860 C.ar      1 VHA         0.0397
     25 N25         8.4220    2.6890   13.3810 N.ar      1 VHA        -0.2642
     26 C26         8.3350    3.9350   12.8650 C.ar      1 VHA         0.1755
     27 N27         7.1380    4.5090   12.7960 N.pl3     1 VHA        -0.3054
     28 H1         11.2050    1.5466   15.4002 H         1 VHA         0.0556
     29 H2          7.6019   -1.3205   12.2868 H         1 VHA         0.0384
     30 H3          8.5060    0.0238   11.5110 H         1 VHA         0.0384
     31 H4          7.2057    0.3827   12.6973 H         1 VHA         0.0384
     32 H5          8.7254   -2.4704   13.8773 H         1 VHA         0.0541
     33 H6         10.3199   -2.6263   15.7512 H         1 VHA         0.0558
     34 H7         11.9791    1.2366   17.5155 H         1 VHA         0.0611
     35 H8         12.9871    0.9510   16.0564 H         1 VHA         0.0611
     36 H9         14.5895   -0.3550   17.4164 H         1 VHA         0.0292
     37 H10        13.5801   -0.0767   18.8760 H         1 VHA         0.0292
     38 H11        15.4090    1.4959   18.9456 H         1 VHA         0.0292
     39 H12        13.9220    2.4153   18.5330 H         1 VHA         0.0292
     40 H13        15.6463    1.3864   16.2490 H         1 VHA         0.0614
     41 H14        16.1968    2.8314   17.1631 H         1 VHA         0.0614
     42 H15        12.3816    4.0512   14.9606 H         1 VHA         0.0493
     43 H16        16.5348    2.9591   14.7824 H         1 VHA         0.0489
     44 H17        16.6364    3.7191   12.4266 H         1 VHA         0.0573
     45 H18        14.6308    4.7854   11.3838 H         1 VHA         0.0479
     46 H19        11.7351    2.3207   13.1899 H         1 VHA         0.0603
     47 H20         7.0436    5.4581   12.4071 H         1 VHA         0.1824
     48 H21         6.3049    4.0047   13.1315 H         1 VHA         0.1824
@<TRIPOS>BOND
     1    1    2 ar 
     2    1    7 ar 
     3    2    3 ar 
     4    2   24 1  
     5    3    4 1  
     6    3    5 ar 
     7    5    6 ar 
     8    6    7 ar 
     9    7    8 1  
    10    8    9 1  
    11    9   10 1  
    12   10   11 1  
    13   11   12 1  
    14   12   13 1  
    15   13   14 1  
    16   14   15 ar 
    17   14   16 ar 
    18   15   19 ar 
    19   16   17 ar 
    20   17   18 ar 
    21   18   19 ar 
    22   19   20 1  
    23   20   21 1  
    24   21   22 ar 
    25   21   23 ar 
    26   22   26 ar 
    27   23   24 ar 
    28   24   25 ar 
    29   25   26 ar 
    30   26   27 1  
    31    1   28 1  
    32    4   29 1  
    33    4   30 1  
    34    4   31 1  
    35    5   32 1  
    36    6   33 1  
    37    9   34 1  
    38    9   35 1  
    39   10   36 1  
    40   10   37 1  
    41   11   38 1  
    42   11   39 1  
    43   12   40 1  
    44   12   41 1  
    45   15   42 1  
    46   16   43 1  
    47   17   44 1  
    48   18   45 1  
    49   23   46 1  
    50   27   47 1  
    51   27   48 1  
@<TRIPOS>SUBSTRUCTURE
     1 VHA         1

