3vha_ligand
  -I-interpret- 

 48 51  0  0  0  0  0  0  0  0999 V2000
   10.6710    0.6660   15.0620 C   0  0  0  0  0
    9.7530    0.7800   14.0090 C   0  0  0  0  0
    9.0420   -0.3480   13.5710 C   0  0  0  0  0
    8.0170   -0.3130   12.4370 C   0  0  0  0  0
    9.2630   -1.5880   14.2050 C   0  0  0  0  0
   10.1750   -1.6740   15.2540 C   0  0  0  0  0
   10.9100   -0.5610   15.6830 C   0  0  0  0  0
   11.8550   -0.6730   16.6980 O   0  0  0  0  0
   12.6470    0.5230   17.0110 C   0  0  0  0  0
   13.8990    0.3440   17.9110 C   0  0  0  0  0
   14.6440    1.6670   18.1740 C   0  0  0  0  0
   15.3280    2.2060   16.9100 C   0  0  0  0  0
   14.2640    3.0010   16.2940 O   0  0  0  0  0
   14.4350    3.4040   15.0120 C   0  0  0  0  0
   13.3100    3.9630   14.4080 C   0  0  0  0  0
   15.6460    3.3530   14.3030 C   0  0  0  0  0
   15.7120    3.8060   12.9860 C   0  0  0  0  0
   14.5750    4.3760   12.3860 C   0  0  0  0  0
   13.3860    4.4080   13.0890 C   0  0  0  0  0
   11.9910    5.1090   12.2690 S   0  0  0  0  0
   10.6160    4.0910   12.6710 C   0  0  0  0  0
    9.4380    4.6640   12.5320 N   0  0  0  0  0
   10.7550    2.7790   13.1230 C   0  0  0  0  0
    9.6180    2.0690   13.4860 C   0  0  0  0  0
    8.4220    2.6890   13.3810 N   0  0  0  0  0
    8.3350    3.9350   12.8650 C   0  0  0  0  0
    7.1380    4.5090   12.7960 N   0  0  0  0  0
   11.2080    1.5515   15.4021 H   0  0  0  0  0
    7.2138    0.3767   12.6962 H   0  0  0  0  0
    8.5027    0.0209   11.5201 H   0  0  0  0  0
    7.6064   -1.3118   12.2891 H   0  0  0  0  0
    8.7224   -2.4753   13.8755 H   0  0  0  0  0
   10.3207   -2.6315   15.7540 H   0  0  0  0  0
   11.9779    1.1781   17.5689 H   0  0  0  0  0
   13.0249    0.8815   16.0535 H   0  0  0  0  0
   14.5857   -0.3275   17.3956 H   0  0  0  0  0
   13.5645   -0.0460   18.8723 H   0  0  0  0  0
   15.4132    1.4807   18.9235 H   0  0  0  0  0
   13.9161    2.4063   18.5081 H   0  0  0  0  0
   15.7068    1.4185   16.2585 H   0  0  0  0  0
   16.2271    2.7844   17.1225 H   0  0  0  0  0
   12.3764    4.0517   14.9636 H   0  0  0  0  0
   16.5398    2.9569   14.7851 H   0  0  0  0  0
   16.6415    3.7187   12.4235 H   0  0  0  0  0
   14.6311    4.7877   11.3783 H   0  0  0  0  0
   11.7405    2.3181   13.1903 H   0  0  0  0  0
    7.0548    5.4808   12.4974 H   0  0  0  0  0
    6.3027    3.9777   13.0416 H   0  0  0  0  0
  1  2  4  0  0  0
  1  7  4  0  0  0
  2  3  4  0  0  0
  2 24  1  0  0  0
  3  4  1  0  0  0
  3  5  4  0  0  0
  5  6  4  0  0  0
  6  7  4  0  0  0
  7  8  1  0  0  0
  8  9  1  0  0  0
  9 10  1  0  0  0
 10 11  1  0  0  0
 11 12  1  0  0  0
 12 13  1  0  0  0
 13 14  1  0  0  0
 14 15  4  0  0  0
 14 16  4  0  0  0
 15 19  4  0  0  0
 16 17  4  0  0  0
 17 18  4  0  0  0
 18 19  4  0  0  0
 19 20  1  0  0  0
 20 21  1  0  0  0
 21 22  4  0  0  0
 21 23  4  0  0  0
 22 26  4  0  0  0
 23 24  4  0  0  0
 24 25  4  0  0  0
 25 26  4  0  0  0
 26 27  1  0  0  0
  1 28  1  0  0  0
  4 29  1  0  0  0
  4 30  1  0  0  0
  4 31  1  0  0  0
  5 32  1  0  0  0
  6 33  1  0  0  0
  9 34  1  0  0  0
  9 35  1  0  0  0
 10 36  1  0  0  0
 10 37  1  0  0  0
 11 38  1  0  0  0
 11 39  1  0  0  0
 12 40  1  0  0  0
 12 41  1  0  0  0
 15 42  1  0  0  0
 16 43  1  0  0  0
 17 44  1  0  0  0
 18 45  1  0  0  0
 23 46  1  0  0  0
 27 47  1  0  0  0
 27 48  1  0  0  0
M  END
$$$$
