### 
### Created by X-TOOL on Wed Jan  1 15:39:34 2020
### 

@<TRIPOS>MOLECULE
6g3q_ligand
   28    28     1     0     0
SMALL
GAST_HUCK


@<TRIPOS>ATOM
      1 C1         -4.3010    3.2640   13.7350 C.3       1 FO9         0.0392
      2 C2         -4.8060    4.6800   13.9410 C.3       1 FO9         0.0144
      3 O1         -4.9590    1.2780   17.7160 O.2       1 FO9        -0.1278
      4 S2         -5.8750    0.8800   16.6790 S.o2      1 FO9         0.1458
      5 O          -7.3020    0.8360   16.8530 O.2       1 FO9        -0.1278
      6 N6         -5.3060   -0.4980   16.0610 N.am      1 FO9        -0.2423
      7 N5         -5.7080    2.0210   15.4650 N.am      1 FO9        -0.1399
      8 C          -4.4890    2.3910   14.9300 C.2       1 FO9         0.1119
      9 N          -3.3980    1.9240   15.5460 N.2       1 FO9        -0.4050
     10 S          -3.5580    5.8530   14.5680 S.3       1 FO9        -0.1462
     11 C3         -2.5920    6.2790   13.0900 C.3       1 FO9         0.0278
     12 C4         -1.5480    7.3130   13.3440 C.2       1 FO9         0.0108
     13 N4         -1.7520    8.2210   14.3690 N.2       1 FO9        -0.3054
     14 C6         -0.7090    9.0390   14.4470 C.2       1 FO9         0.0721
     15 S1          0.5430    8.7600   13.3100 S.3       1 FO9        -0.0209
     16 C5         -0.3820    7.4540   12.6750 C.2       1 FO9         0.0055
     17 H1         -3.2274    3.3069   13.4994 H         1 FO9         0.0558
     18 H2         -4.8446    2.8190   12.8886 H         1 FO9         0.0558
     19 H3         -5.6362    4.6459   14.6618 H         1 FO9         0.0411
     20 H4         -5.1743    5.0560   12.9751 H         1 FO9         0.0411
     21 H5         -4.3264   -0.6019   15.8888 H         1 FO9         0.1654
     22 H6         -5.9330   -1.2480   15.8502 H         1 FO9         0.1654
     23 H7         -6.5340    2.4576   15.1084 H         1 FO9         0.2387
     24 H8         -3.4913    1.3316   16.3562 H         1 FO9         0.0471
     25 H9         -3.2803    6.6598   12.3211 H         1 FO9         0.0511
     26 H10        -2.0982    5.3679   12.7213 H         1 FO9         0.0511
     27 H11        -0.6526    9.8365   15.1864 H         1 FO9         0.1164
     28 H12        -0.0688    6.8243   11.8436 H         1 FO9         0.0587
@<TRIPOS>BOND
     1    1    2 1  
     2    8    1 1  
     3    2   10 1  
     4    4    3 2  
     5    4    5 2  
     6    4    6 am 
     7    7    4 am 
     8    7    8 1  
     9    8    9 2  
    10   10   11 1  
    11   11   12 1  
    12   12   13 1  
    13   12   16 2  
    14   13   14 2  
    15   14   15 1  
    16   15   16 1  
    17    1   17 1  
    18    1   18 1  
    19    2   19 1  
    20    2   20 1  
    21    6   21 1  
    22    6   22 1  
    23    7   23 1  
    24    9   24 1  
    25   11   25 1  
    26   11   26 1  
    27   14   27 1  
    28   16   28 1  
@<TRIPOS>SUBSTRUCTURE
     1 FO9         1

