6g3q_ligand
  -I-interpret- 

 28 28  0  0  0  0  0  0  0  0999 V2000
   -4.3010    3.2640   13.7350 C   0  0  0  0  0
   -4.8060    4.6800   13.9410 C   0  0  0  0  0
   -4.9590    1.2780   17.7160 O   0  0  0  0  0
   -5.8750    0.8800   16.6790 S   0  0  0  0  0
   -7.3020    0.8360   16.8530 O   0  0  0  0  0
   -5.3060   -0.4980   16.0610 N   0  0  0  0  0
   -5.7080    2.0210   15.4650 N   0  0  0  0  0
   -4.4890    2.3910   14.9300 C   0  0  0  0  0
   -3.3980    1.9240   15.5460 N   0  0  0  0  0
   -3.5580    5.8530   14.5680 S   0  0  0  0  0
   -2.5920    6.2790   13.0900 C   0  0  0  0  0
   -1.5480    7.3130   13.3440 C   0  0  0  0  0
   -1.7520    8.2210   14.3690 N   0  0  0  0  0
   -0.7090    9.0390   14.4470 C   0  0  0  0  0
    0.5430    8.7600   13.3100 S   0  0  0  0  0
   -0.3820    7.4540   12.6750 C   0  0  0  0  0
   -3.2312    3.3216   13.5341 H   0  0  0  0  0
   -4.8706    2.8271   12.9148 H   0  0  0  0  0
   -5.5964    4.6284   14.6898 H   0  0  0  0  0
   -5.1242    5.0477   12.9655 H   0  0  0  0  0
   -4.4459   -0.9049   16.4285 H   0  0  0  0  0
   -5.8065   -0.9620   15.3030 H   0  0  0  0  0
   -6.5505    2.4664   15.1013 H   0  0  0  0  0
   -3.4924    1.3267   16.3674 H   0  0  0  0  0
   -3.2831    6.6839   12.3507 H   0  0  0  0  0
   -2.0843    5.3739   12.7566 H   0  0  0  0  0
   -0.6525    9.8372   15.1871 H   0  0  0  0  0
   -0.0685    6.8237   11.8428 H   0  0  0  0  0
  1  2  1  0  0  0
  8  1  1  0  0  0
  2 10  1  0  0  0
  4  3  2  0  0  0
  4  5  2  0  0  0
  4  6  1  0  0  0
  7  4  1  0  0  0
  7  8  1  0  0  0
  8  9  2  0  0  0
 10 11  1  0  0  0
 11 12  1  0  0  0
 12 13  4  0  0  0
 12 16  4  0  0  0
 13 14  4  0  0  0
 14 15  4  0  0  0
 15 16  4  0  0  0
  1 17  1  0  0  0
  1 18  1  0  0  0
  2 19  1  0  0  0
  2 20  1  0  0  0
  6 21  1  0  0  0
  6 22  1  0  0  0
  7 23  1  0  0  0
  9 24  1  0  0  0
 11 25  1  0  0  0
 11 26  1  0  0  0
 14 27  1  0  0  0
 16 28  1  0  0  0
M  END
$$$$
