### 
### Created by X-TOOL on Mon Sep 10 21:13:33 2018
### 

@<TRIPOS>MOLECULE
5n17_ligand
   43    46     1     0     0
SMALL
GAST_HUCK


@<TRIPOS>ATOM
      1 O2          2.7050  -25.7440  -32.9290 O.2       1 8FK        -0.3768
      2 C           2.4270  -26.0490  -31.7890 C.2       1 8FK         0.2267
      3 C13         3.4420  -25.6850  -30.7500 C.ar      1 8FK         0.0690
      4 C16         3.9910  -24.4110  -30.7970 C.ar      1 8FK        -0.0471
      5 C17         4.9540  -24.0370  -29.8710 C.ar      1 8FK        -0.0629
      6 C18         5.3890  -24.9360  -28.9010 C.ar      1 8FK        -0.0632
      7 C15         4.8720  -26.2280  -28.8230 C.ar      1 8FK        -0.0421
      8 C14         3.9170  -26.6540  -29.7390 C.ar      1 8FK         0.0480
      9 S           3.2330  -28.2100  -29.6770 S.3       1 8FK        -0.0498
     10 C2          1.6210  -27.8120  -29.3060 C.ar      1 8FK         0.0409
     11 C3          1.0330  -28.1330  -28.0780 C.ar      1 8FK        -0.0385
     12 C6         -0.2960  -27.7480  -27.8170 C.ar      1 8FK         0.0465
     13 C5         -1.0310  -27.0450  -28.7590 C.ar      1 8FK        -0.0602
     14 C4         -0.4890  -26.6980  -29.9730 C.ar      1 8FK        -0.0582
     15 C1          0.8180  -27.0310  -30.2810 C.ar      1 8FK         0.0690
     16 N           1.2850  -26.6850  -31.5520 N.am      1 8FK        -0.2334
     17 C12         0.4310  -27.1500  -32.6450 C.3       1 8FK         0.0395
     18 N1         -1.0100  -28.0410  -26.7010 N.am      1 8FK        -0.2414
     19 C7         -0.6240  -28.8810  -25.7530 C.2       1 8FK         0.2290
     20 O1          0.4400  -29.4720  -25.7280 O.2       1 8FK        -0.3838
     21 C8         -1.5940  -29.0870  -24.6330 C.3       1 8FK         0.1522
     22 C10        -1.8780  -27.7630  -23.9480 C.3       1 8FK        -0.0066
     23 C11        -0.6050  -27.5440  -23.1470 C.3       1 8FK        -0.0248
     24 C9          0.0250  -28.9310  -23.0310 C.3       1 8FK         0.0513
     25 O          -0.9060  -29.8360  -23.6400 O.3       1 8FK        -0.3558
     26 H1          3.6675  -23.7087  -31.5568 H         1 8FK         0.0651
     27 H2          5.3710  -23.0369  -29.9030 H         1 8FK         0.0572
     28 H3          6.1464  -24.6243  -28.1909 H         1 8FK         0.0635
     29 H4          5.2153  -26.9020  -28.0465 H         1 8FK         0.0579
     30 H5          1.5986  -28.6764  -27.3298 H         1 8FK         0.0420
     31 H6         -2.0532  -26.7636  -28.5334 H         1 8FK         0.0414
     32 H7         -1.0907  -26.1587  -30.6956 H         1 8FK         0.0448
     33 H8          0.8649  -26.8393  -33.6069 H         1 8FK         0.0539
     34 H9         -0.5728  -26.7132  -32.5374 H         1 8FK         0.0539
     35 H10         0.3588  -28.2471  -32.6127 H         1 8FK         0.0539
     36 H11        -1.8943  -27.5885  -26.5858 H         1 8FK         0.2210
     37 H12        -2.5140  -29.5803  -24.9797 H         1 8FK         0.0844
     38 H13        -2.7571  -27.8333  -23.2905 H         1 8FK         0.0316
     39 H14        -2.0323  -26.9581  -24.6817 H         1 8FK         0.0316
     40 H15        -0.8383  -27.1397  -22.1510 H         1 8FK         0.0290
     41 H16         0.0707  -26.8541  -23.6738 H         1 8FK         0.0290
     42 H17         0.1794  -29.1943  -21.9742 H         1 8FK         0.0562
     43 H18         0.9887  -28.9594  -23.5606 H         1 8FK         0.0562
@<TRIPOS>BOND
     1    1    2 2  
     2    2    3 1  
     3    2   16 am 
     4    3    4 ar 
     5    3    8 ar 
     6    4    5 ar 
     7    5    6 ar 
     8    6    7 ar 
     9    7    8 ar 
    10    8    9 1  
    11    9   10 1  
    12   10   11 ar 
    13   10   15 ar 
    14   11   12 ar 
    15   12   13 ar 
    16   12   18 1  
    17   13   14 ar 
    18   14   15 ar 
    19   15   16 1  
    20   16   17 1  
    21   18   19 am 
    22   19   20 2  
    23   19   21 1  
    24   21   22 1  
    25   21   25 1  
    26   22   23 1  
    27   23   24 1  
    28   24   25 1  
    29    4   26 1  
    30    5   27 1  
    31    6   28 1  
    32    7   29 1  
    33   11   30 1  
    34   13   31 1  
    35   14   32 1  
    36   17   33 1  
    37   17   34 1  
    38   17   35 1  
    39   18   36 1  
    40   21   37 1  
    41   22   38 1  
    42   22   39 1  
    43   23   40 1  
    44   23   41 1  
    45   24   42 1  
    46   24   43 1  
@<TRIPOS>SUBSTRUCTURE
     1 8FK         1

