5n17_ligand
  -I-interpret- 

 43 46  0  0  0  0  0  0  0  0999 V2000
    2.7050  -25.7440  -32.9290 O   0  0  0  0  0
    2.4270  -26.0490  -31.7890 C   0  0  0  0  0
    3.4420  -25.6850  -30.7500 C   0  0  0  0  0
    3.9910  -24.4110  -30.7970 C   0  0  0  0  0
    4.9540  -24.0370  -29.8710 C   0  0  0  0  0
    5.3890  -24.9360  -28.9010 C   0  0  0  0  0
    4.8720  -26.2280  -28.8230 C   0  0  0  0  0
    3.9170  -26.6540  -29.7390 C   0  0  0  0  0
    3.2330  -28.2100  -29.6770 S   0  0  0  0  0
    1.6210  -27.8120  -29.3060 C   0  0  0  0  0
    1.0330  -28.1330  -28.0780 C   0  0  0  0  0
   -0.2960  -27.7480  -27.8170 C   0  0  0  0  0
   -1.0310  -27.0450  -28.7590 C   0  0  0  0  0
   -0.4890  -26.6980  -29.9730 C   0  0  0  0  0
    0.8180  -27.0310  -30.2810 C   0  0  0  0  0
    1.2850  -26.6850  -31.5520 N   0  0  0  0  0
    0.4310  -27.1500  -32.6450 C   0  0  0  0  0
   -1.0100  -28.0410  -26.7010 N   0  0  0  0  0
   -0.6240  -28.8810  -25.7530 C   0  0  0  0  0
    0.4400  -29.4720  -25.7280 O   0  0  0  0  0
   -1.5940  -29.0870  -24.6330 C   0  0  0  0  0
   -1.8780  -27.7630  -23.9480 C   0  0  0  0  0
   -0.6050  -27.5440  -23.1470 C   0  0  0  0  0
    0.0250  -28.9310  -23.0310 C   0  0  0  0  0
   -0.9060  -29.8360  -23.6400 O   0  0  0  0  0
    3.6657  -23.7048  -31.5610 H   0  0  0  0  0
    5.3733  -23.0314  -29.9031 H   0  0  0  0  0
    6.1506  -24.6226  -28.1869 H   0  0  0  0  0
    5.2172  -26.9057  -28.0422 H   0  0  0  0  0
    1.6018  -28.6794  -27.3256 H   0  0  0  0  0
   -2.0589  -26.7620  -28.5322 H   0  0  0  0  0
   -1.0940  -26.1557  -30.6996 H   0  0  0  0  0
    0.3603  -28.2372  -32.6118 H   0  0  0  0  0
   -0.5633  -26.7165  -32.5372 H   0  0  0  0  0
    0.8619  -26.8415  -33.5975 H   0  0  0  0  0
   -1.9120  -27.5794  -26.5835 H   0  0  0  0  0
   -2.5019  -29.5511  -25.0184 H   0  0  0  0  0
   -2.7781  -27.7786  -23.3335 H   0  0  0  0  0
   -2.0948  -26.9535  -24.6450 H   0  0  0  0  0
   -0.8101  -27.1079  -22.1693 H   0  0  0  0  0
    0.0636  -26.8335  -23.6330 H   0  0  0  0  0
    0.2117  -29.1956  -21.9902 H   0  0  0  0  0
    0.9953  -28.9681  -23.5261 H   0  0  0  0  0
  1  2  2  0  0  0
  2  3  1  0  0  0
  2 16  1  0  0  0
  3  4  4  0  0  0
  3  8  4  0  0  0
  4  5  4  0  0  0
  5  6  4  0  0  0
  6  7  4  0  0  0
  7  8  4  0  0  0
  8  9  1  0  0  0
  9 10  1  0  0  0
 10 11  4  0  0  0
 10 15  4  0  0  0
 11 12  4  0  0  0
 12 13  4  0  0  0
 12 18  1  0  0  0
 13 14  4  0  0  0
 14 15  4  0  0  0
 15 16  1  0  0  0
 16 17  1  0  0  0
 18 19  1  0  0  0
 19 20  2  0  0  0
 19 21  1  0  0  0
 21 22  1  0  0  0
 21 25  1  0  0  0
 22 23  1  0  0  0
 23 24  1  0  0  0
 24 25  1  0  0  0
  4 26  1  0  0  0
  5 27  1  0  0  0
  6 28  1  0  0  0
  7 29  1  0  0  0
 11 30  1  0  0  0
 13 31  1  0  0  0
 14 32  1  0  0  0
 17 33  1  0  0  0
 17 34  1  0  0  0
 17 35  1  0  0  0
 18 36  1  0  0  0
 21 37  1  0  0  0
 22 38  1  0  0  0
 22 39  1  0  0  0
 23 40  1  0  0  0
 23 41  1  0  0  0
 24 42  1  0  0  0
 24 43  1  0  0  0
M  END
$$$$
