### 
### Created by X-TOOL on Mon Sep 10 21:12:51 2018
### 

@<TRIPOS>MOLECULE
1uho_ligand
   68    71     1     0     0
SMALL
GAST_HUCK


@<TRIPOS>ATOM
      1 C1          5.6490   65.4120   87.0210 C.3       1 VDN        -0.0362
      2 C2          5.7430   66.6070   86.0660 C.3       1 VDN         0.0727
      3 O3          4.4480   66.6520   85.4510 O.3       1 VDN        -0.3040
      4 C4          4.0080   67.5630   84.5120 C.ar      1 VDN         0.1283
      5 C5          4.7360   68.6130   83.9760 C.ar      1 VDN        -0.0146
      6 C6          4.1480   69.5230   82.9770 C.ar      1 VDN        -0.0310
      7 C7          2.8470   69.3290   82.5550 C.ar      1 VDN         0.1115
      8 C8          2.0440   68.2070   83.1130 C.ar      1 VDN        -0.0122
      9 C9          2.5480   67.3570   84.0270 C.ar      1 VDN         0.1016
     10 S10         2.0960   70.3610   81.3670 S.o2      1 VDN         0.0694
     11 O11         2.7000   70.0390   80.0920 O.2       1 VDN        -0.1510
     12 O12         0.6740   70.0870   81.4400 O.2       1 VDN        -0.1510
     13 C13         2.4760   77.1960   80.3320 C.3       1 VDN        -0.0245
     14 N14         2.3960   71.9420   81.7810 N.am      1 VDN        -0.2247
     15 C15         1.1750   72.7260   82.1090 C.3       1 VDN         0.0697
     16 C16         1.4820   74.2080   82.4240 C.3       1 VDN        -0.0144
     17 N17         2.1900   74.8440   81.2890 N.4       1 VDN         0.2373
     18 C18         3.4390   74.0920   81.0100 C.3       1 VDN        -0.0144
     19 C19         3.1720   72.6020   80.7070 C.3       1 VDN         0.0697
     20 C20         2.4460   76.2650   81.5690 C.3       1 VDN        -0.0347
     21 C21         1.7020   66.2710   84.5530 C.2       1 VDN         0.2192
     22 N22         1.5970   66.0250   85.8910 N.am      1 VDN        -0.1843
     23 C23         0.8150   65.0230   86.5150 C.2       1 VDN         0.2479
     24 C24         0.0570   64.1950   85.5420 C.2       1 VDN         0.1634
     25 N25         0.2170   64.5080   84.1510 N.2       1 VDN        -0.2117
     26 N26         0.9970   65.4980   83.6910 N.2       1 VDN        -0.1714
     27 O27         0.7890   64.8850   87.7210 O.2       1 VDN        -0.3899
     28 C28        -0.8350   63.1290   85.4640 C.2       1 VDN         0.1292
     29 N29        -1.2030   62.8030   84.1100 N.pl3     1 VDN        -0.1884
     30 C30        -0.5450   63.6620   83.4020 C.2       1 VDN         0.1986
     31 C31        -1.3830   62.3720   86.6690 C.3       1 VDN         0.0210
     32 C32        -0.5440   63.8060   81.8860 C.3       1 VDN         0.0585
     33 C33         0.5810   63.0560   81.1290 C.3       1 VDN        -0.0297
     34 C34         0.2000   61.5910   80.9110 C.3       1 VDN        -0.0613
     35 H1          6.6056   65.2893   87.5500 H         1 VDN         0.0256
     36 H2          5.4280   64.5002   86.4468 H         1 VDN         0.0256
     37 H3          4.8461   65.5888   87.7517 H         1 VDN         0.0256
     38 H4          6.5294   66.4472   85.3136 H         1 VDN         0.0622
     39 H5          5.9475   67.5359   86.6186 H         1 VDN         0.0622
     40 H6          5.7593   68.7683   84.2982 H         1 VDN         0.0579
     41 H7          4.7341   70.3414   82.5749 H         1 VDN         0.0710
     42 H8          1.0236   68.0703   82.7735 H         1 VDN         0.0710
     43 H9          2.6736   78.2287   80.6551 H         1 VDN         0.0281
     44 H10         1.5052   77.1525   79.8167 H         1 VDN         0.0281
     45 H11         3.2705   76.8682   79.6455 H         1 VDN         0.0281
     46 H12         0.6916   72.2729   82.9870 H         1 VDN         0.0531
     47 H13         0.4890   72.6840   81.2502 H         1 VDN         0.0531
     48 H14         2.1147   74.2636   83.3221 H         1 VDN         0.0830
     49 H15         0.5380   74.7423   82.6068 H         1 VDN         0.0830
     50 H16         1.6008   74.7899   80.4729 H         1 VDN         0.2034
     51 H17         4.0973   74.1616   81.8885 H         1 VDN         0.0830
     52 H18         3.9381   74.5455   80.1410 H         1 VDN         0.0830
     53 H19         2.6077   72.5278   79.7657 H         1 VDN         0.0531
     54 H20         4.1366   72.0846   80.5980 H         1 VDN         0.0531
     55 H21         1.6555   76.6246   82.2441 H         1 VDN         0.0812
     56 H22         3.4209   76.3403   82.0729 H         1 VDN         0.0812
     57 H23         2.1299   66.6163   86.4963 H         1 VDN         0.2659
     58 H24        -1.8392   62.0617   83.7834 H         1 VDN         0.2595
     59 H25        -0.9621   62.7977   87.5918 H         1 VDN         0.0551
     60 H26        -1.1031   61.3109   86.5938 H         1 VDN         0.0551
     61 H27        -2.4791   62.4614   86.6907 H         1 VDN         0.0551
     62 H28        -0.4512   64.8765   81.6505 H         1 VDN         0.0663
     63 H29        -1.5081   63.4305   81.5124 H         1 VDN         0.0663
     64 H30         1.5081   63.1043   81.7191 H         1 VDN         0.0311
     65 H31         0.7423   63.5365   80.1528 H         1 VDN         0.0311
     66 H32         1.0105   61.0775   80.3730 H         1 VDN         0.0233
     67 H33        -0.7251   61.5370   80.3184 H         1 VDN         0.0233
     68 H34         0.0407   61.1047   81.8847 H         1 VDN         0.0233
@<TRIPOS>BOND
     1    2    1 1  
     2    3    2 1  
     3    4    3 1  
     4    5    4 ar 
     5    9    4 ar 
     6    6    5 ar 
     7    7    6 ar 
     8    7    8 ar 
     9   10    7 1  
    10    8    9 ar 
    11    9   21 1  
    12   10   11 2  
    13   10   12 2  
    14   14   10 am 
    15   20   13 1  
    16   15   14 1  
    17   14   19 1  
    18   16   15 1  
    19   17   16 1  
    20   17   18 1  
    21   17   20 1  
    22   18   19 1  
    23   21   22 am 
    24   21   26 2  
    25   22   23 am 
    26   23   24 1  
    27   23   27 2  
    28   24   25 1  
    29   24   28 2  
    30   25   26 1  
    31   25   30 2  
    32   28   29 1  
    33   28   31 1  
    34   29   30 1  
    35   30   32 1  
    36   32   33 1  
    37   33   34 1  
    38    1   35 1  
    39    1   36 1  
    40    1   37 1  
    41    2   38 1  
    42    2   39 1  
    43    5   40 1  
    44    6   41 1  
    45    8   42 1  
    46   13   43 1  
    47   13   44 1  
    48   13   45 1  
    49   15   46 1  
    50   15   47 1  
    51   16   48 1  
    52   16   49 1  
    53   17   50 1  
    54   18   51 1  
    55   18   52 1  
    56   19   53 1  
    57   19   54 1  
    58   20   55 1  
    59   20   56 1  
    60   22   57 1  
    61   29   58 1  
    62   31   59 1  
    63   31   60 1  
    64   31   61 1  
    65   32   62 1  
    66   32   63 1  
    67   33   64 1  
    68   33   65 1  
    69   34   66 1  
    70   34   67 1  
    71   34   68 1  
@<TRIPOS>SUBSTRUCTURE
     1 VDN         1

