1uho_ligand
  -I-interpret- 

 67 70  0  0  0  0  0  0  0  0999 V2000
    5.6490   65.4120   87.0210 C   0  0  0  0  0
    5.7430   66.6070   86.0660 C   0  0  0  0  0
    4.4480   66.6520   85.4510 O   0  0  0  0  0
    4.0080   67.5630   84.5120 C   0  0  0  0  0
    4.7360   68.6130   83.9760 C   0  0  0  0  0
    4.1480   69.5230   82.9770 C   0  0  0  0  0
    2.8470   69.3290   82.5550 C   0  0  0  0  0
    2.0440   68.2070   83.1130 C   0  0  0  0  0
    2.5480   67.3570   84.0270 C   0  0  0  0  0
    2.0960   70.3610   81.3670 S   0  0  0  0  0
    2.7000   70.0390   80.0920 O   0  0  0  0  0
    0.6740   70.0870   81.4400 O   0  0  0  0  0
    2.4760   77.1960   80.3320 C   0  0  0  0  0
    2.3960   71.9420   81.7810 N   0  0  0  0  0
    1.1750   72.7260   82.1090 C   0  0  0  0  0
    1.4820   74.2080   82.4240 C   0  0  0  0  0
    2.1900   74.8440   81.2890 N   0  3  0  0  0
    3.4390   74.0920   81.0100 C   0  0  0  0  0
    3.1720   72.6020   80.7070 C   0  0  0  0  0
    2.4460   76.2650   81.5690 C   0  0  0  0  0
    1.7020   66.2710   84.5530 C   0  0  0  0  0
    1.5970   66.0250   85.8910 N   0  0  0  0  0
    0.8150   65.0230   86.5150 C   0  0  0  0  0
    0.0570   64.1950   85.5420 C   0  0  0  0  0
    0.2170   64.5080   84.1510 N   0  3  0  0  0
    0.9970   65.4980   83.6910 N   0  0  0  0  0
    0.7890   64.8850   87.7210 O   0  0  0  0  0
   -0.8350   63.1290   85.4640 C   0  0  0  0  0
   -1.2030   62.8030   84.1100 N   0  0  0  0  0
   -0.5450   63.6620   83.4020 C   0  0  0  0  0
   -1.3830   62.3720   86.6690 C   0  0  0  0  0
   -0.5440   63.8060   81.8860 C   0  0  0  0  0
    0.5810   63.0560   81.1290 C   0  0  0  0  0
    0.2000   61.5910   80.9110 C   0  0  0  0  0
    4.8530   65.5884   87.7445 H   0  0  0  0  0
    5.4299   64.5092   86.4508 H   0  0  0  0  0
    6.5974   65.2914   87.5445 H   0  0  0  0  0
    6.5461   66.4955   85.3375 H   0  0  0  0  0
    5.9909   67.5342   86.5826 H   0  0  0  0  0
    5.7650   68.7692   84.2999 H   0  0  0  0  0
    4.7374   70.3460   82.5727 H   0  0  0  0  0
    1.0180   68.0696   82.7716 H   0  0  0  0  0
    3.2636   76.8701   79.6526 H   0  0  0  0  0
    1.5135   77.1520   79.8223 H   0  0  0  0  0
    2.6719   78.2189   80.6534 H   0  0  0  0  0
    0.7218   72.2830   82.9958 H   0  0  0  0  0
    0.5171   72.6985   81.2404 H   0  0  0  0  0
    2.1159   74.2578   83.3093 H   0  0  0  0  0
    0.5436   74.7351   82.5960 H   0  0  0  0  0
    1.6058   74.8112   80.4535 H   0  0  0  0  0
    4.0721   74.1484   81.8955 H   0  0  0  0  0
    3.9116   74.5354   80.1336 H   0  0  0  0  0
    2.5932   72.5423   79.7853 H   0  0  0  0  0
    4.1337   72.0957   80.6239 H   0  0  0  0  0
    1.6238   76.6099   82.1960 H   0  0  0  0  0
    3.4368   76.3179   82.0202 H   0  0  0  0  0
    2.1406   66.6281   86.5084 H   0  0  0  0  0
   -0.5568   61.9259   87.2227 H   0  0  0  0  0
   -1.9240   63.0631   87.3153 H   0  0  0  0  0
   -2.0585   61.5878   86.3273 H   0  0  0  0  0
   -0.3950   64.8661   81.6808 H   0  0  0  0  0
   -1.4837   63.3766   81.5386 H   0  0  0  0  0
    1.4946   63.0986   81.7220 H   0  0  0  0  0
    0.7303   63.5300   80.1589 H   0  0  0  0  0
    0.0424   61.1104   81.8765 H   0  0  0  0  0
   -0.7168   61.5389   80.3238 H   0  0  0  0  0
    1.0038   61.0833   80.3779 H   0  0  0  0  0
  2  1  1  0  0  0
  3  2  1  0  0  0
  4  3  1  0  0  0
  5  4  4  0  0  0
  9  4  4  0  0  0
  6  5  4  0  0  0
  7  6  4  0  0  0
  7  8  4  0  0  0
 10  7  1  0  0  0
  8  9  4  0  0  0
  9 21  1  0  0  0
 10 11  2  0  0  0
 10 12  2  0  0  0
 14 10  1  0  0  0
 20 13  1  0  0  0
 15 14  1  0  0  0
 14 19  1  0  0  0
 16 15  1  0  0  0
 17 16  1  0  0  0
 17 18  1  0  0  0
 17 20  1  0  0  0
 18 19  1  0  0  0
 21 22  1  0  0  0
 21 26  2  0  0  0
 22 23  1  0  0  0
 23 24  1  0  0  0
 23 27  2  0  0  0
 24 25  4  0  0  0
 24 28  4  0  0  0
 25 26  1  0  0  0
 25 30  4  0  0  0
 28 29  4  0  0  0
 28 31  1  0  0  0
 29 30  4  0  0  0
 30 32  1  0  0  0
 32 33  1  0  0  0
 33 34  1  0  0  0
  1 35  1  0  0  0
  1 36  1  0  0  0
  1 37  1  0  0  0
  2 38  1  0  0  0
  2 39  1  0  0  0
  5 40  1  0  0  0
  6 41  1  0  0  0
  8 42  1  0  0  0
 13 43  1  0  0  0
 13 44  1  0  0  0
 13 45  1  0  0  0
 15 46  1  0  0  0
 15 47  1  0  0  0
 16 48  1  0  0  0
 16 49  1  0  0  0
 17 50  1  0  0  0
 18 51  1  0  0  0
 18 52  1  0  0  0
 19 53  1  0  0  0
 19 54  1  0  0  0
 20 55  1  0  0  0
 20 56  1  0  0  0
 22 57  1  0  0  0
 31 58  1  0  0  0
 31 59  1  0  0  0
 31 60  1  0  0  0
 32 61  1  0  0  0
 32 62  1  0  0  0
 33 63  1  0  0  0
 33 64  1  0  0  0
 34 65  1  0  0  0
 34 66  1  0  0  0
 34 67  1  0  0  0
M  END
$$$$
