6qpl_ligand
  -I-interpret- 

 55 57  0  0  0  0  0  0  0  0999 V2000
   -5.5190  -36.3260   -8.9020 N   0  3  0  0  0
   -7.3570  -38.1720   -6.8210 C   0  0  0  0  0
   -7.1500  -36.8310   -7.1250 C   0  0  0  0  0
   -5.7550  -36.3170   -7.4480 C   0  0  0  0  0
   -8.2150  -35.9420   -7.0090 C   0  0  0  0  0
   -9.4420  -36.3820   -6.5480 C   0  0  0  0  0
  -11.5750  -33.6000   -5.5730 C   0  0  0  0  0
  -14.4330  -36.9500   -4.7280 C   0  0  0  0  0
  -15.9930  -38.7700   -4.5300 C   0  0  0  0  0
  -14.4850  -38.2860   -2.7280 C   0  0  0  0  0
   -7.8910  -40.4490   -4.8660 N   0  3  0  0  0
  -11.7920  -38.5770   -6.6060 C   0  0  0  0  0
  -10.8140  -38.1410   -5.6630 O   0  0  0  0  0
   -9.6190  -37.7230   -6.2070 C   0  0  0  0  0
  -12.0440  -34.2540   -4.2820 C   0  0  0  0  0
  -13.7130  -35.7750   -5.3170 C   0  0  0  0  0
  -15.4580  -37.7240   -5.2630 C   0  0  0  0  0
  -15.5060  -39.0540   -3.2680 C   0  0  0  0  0
  -13.9480  -37.2340   -3.4570 C   0  0  0  0  0
  -12.8380  -36.2910   -3.0850 C   0  0  0  0  0
   -8.5810  -38.6420   -6.3560 C   0  0  0  0  0
   -8.7490  -40.1000   -5.9930 C   0  0  0  0  0
  -10.2960  -34.1860   -6.1100 C   0  0  0  0  0
  -12.4920  -35.6470   -4.4170 N   0  3  0  0  0
  -10.5310  -35.5810   -6.3460 O   0  0  0  0  0
   -4.5797  -35.9782   -9.0949 H   0  0  0  0  0
   -5.6089  -37.2791   -9.2539 H   0  0  0  0  0
   -6.2055  -35.7268   -9.3604 H   0  0  0  0  0
   -6.5353  -38.8763   -6.9510 H   0  0  0  0  0
   -5.6637  -35.2940   -7.0831 H   0  0  0  0  0
   -5.0214  -36.9651   -6.9685 H   0  0  0  0  0
   -8.0811  -34.8954   -7.2826 H   0  0  0  0  0
  -11.3899  -32.5473   -5.3596 H   0  0  0  0  0
  -12.3499  -33.7600   -6.3227 H   0  0  0  0  0
  -16.8001  -39.3708   -4.9492 H   0  0  0  0  0
  -14.1044  -38.5086   -1.7312 H   0  0  0  0  0
   -8.0179  -41.4346   -4.6361 H   0  0  0  0  0
   -6.9169  -40.2798   -5.1167 H   0  0  0  0  0
   -8.1404  -39.8758   -4.0600 H   0  0  0  0  0
  -12.0294  -37.7588   -7.2859 H   0  0  0  0  0
  -11.3973  -39.4197   -7.1735 H   0  0  0  0  0
  -12.6938  -38.8844   -6.0765 H   0  0  0  0  0
  -12.9026  -33.6803   -3.9331 H   0  0  0  0  0
  -11.1891  -34.2630   -3.6058 H   0  0  0  0  0
  -14.3214  -34.8709   -5.3402 H   0  0  0  0  0
  -13.4552  -35.9162   -6.3666 H   0  0  0  0  0
  -15.8404  -37.5067   -6.2603 H   0  0  0  0  0
  -15.9247  -39.8824   -2.6965 H   0  0  0  0  0
  -11.9893  -36.7931   -2.6205 H   0  0  0  0  0
  -13.1301  -35.5672   -2.3242 H   0  0  0  0  0
   -9.7879  -40.2780   -5.7152 H   0  0  0  0  0
   -8.4724  -40.7124   -6.8512 H   0  0  0  0  0
   -9.4836  -34.0503   -5.3960 H   0  0  0  0  0
  -10.0040  -33.6857   -7.0333 H   0  0  0  0  0
  -11.6953  -36.1306   -4.8316 H   0  0  0  0  0
  4  1  1  0  0  0
  3  2  4  0  0  0
 21  2  4  0  0  0
  3  4  1  0  0  0
  5  3  4  0  0  0
  6  5  4  0  0  0
  6 14  4  0  0  0
 25  6  1  0  0  0
  7 15  1  0  0  0
 23  7  1  0  0  0
 16  8  1  0  0  0
  8 17  4  0  0  0
 19  8  4  0  0  0
 17  9  4  0  0  0
 18  9  4  0  0  0
 10 18  4  0  0  0
 19 10  4  0  0  0
 22 11  1  0  0  0
 13 12  1  0  0  0
 14 13  1  0  0  0
 14 21  4  0  0  0
 15 24  1  0  0  0
 24 16  1  0  0  0
 20 19  1  0  0  0
 24 20  1  0  0  0
 21 22  1  0  0  0
 23 25  1  0  0  0
  1 26  1  0  0  0
  1 27  1  0  0  0
  1 28  1  0  0  0
  2 29  1  0  0  0
  4 30  1  0  0  0
  4 31  1  0  0  0
  5 32  1  0  0  0
  7 33  1  0  0  0
  7 34  1  0  0  0
  9 35  1  0  0  0
 10 36  1  0  0  0
 11 37  1  0  0  0
 11 38  1  0  0  0
 11 39  1  0  0  0
 12 40  1  0  0  0
 12 41  1  0  0  0
 12 42  1  0  0  0
 15 43  1  0  0  0
 15 44  1  0  0  0
 16 45  1  0  0  0
 16 46  1  0  0  0
 17 47  1  0  0  0
 18 48  1  0  0  0
 20 49  1  0  0  0
 20 50  1  0  0  0
 22 51  1  0  0  0
 22 52  1  0  0  0
 23 53  1  0  0  0
 23 54  1  0  0  0
 24 55  1  0  0  0
M  END
$$$$
