### 
### Created by X-TOOL on Mon Aug  2 16:16:34 2021
### 

@<TRIPOS>MOLECULE
6qpl_ligand
   55    57     1     0     0
SMALL
GAST_HUCK


@<TRIPOS>ATOM
      1 N1         -5.5190  -36.3260   -8.9020 N.4       1 JC5         0.2292
      2 C4         -7.3570  -38.1720   -6.8210 C.ar      1 JC5        -0.0680
      3 C5         -7.1500  -36.8310   -7.1250 C.ar      1 JC5        -0.0243
      4 C6         -5.7550  -36.3170   -7.4480 C.3       1 JC5        -0.0103
      5 C7         -8.2150  -35.9420   -7.0090 C.ar      1 JC5        -0.0416
      6 C8         -9.4420  -36.3820   -6.5480 C.ar      1 JC5         0.1074
      7 C10       -11.5750  -33.6000   -5.5730 C.3       1 JC5         0.0149
      8 C13       -14.4330  -36.9500   -4.7280 C.ar      1 JC5         0.0084
      9 C15       -15.9930  -38.7700   -4.5300 C.ar      1 JC5        -0.0753
     10 C17       -14.4850  -38.2860   -2.7280 C.ar      1 JC5        -0.0616
     11 N          -7.8910  -40.4490   -4.8660 N.4       1 JC5         0.2290
     12 C         -11.7920  -38.5770   -6.6060 C.3       1 JC5         0.0536
     13 O         -10.8140  -38.1410   -5.6630 O.3       1 JC5        -0.3335
     14 C1         -9.6190  -37.7230   -6.2070 C.ar      1 JC5         0.1180
     15 C11       -12.0440  -34.2540   -4.2820 C.3       1 JC5        -0.0268
     16 C12       -13.7130  -35.7750   -5.3170 C.3       1 JC5         0.0012
     17 C14       -15.4580  -37.7240   -5.2630 C.ar      1 JC5        -0.0616
     18 C16       -15.5060  -39.0540   -3.2680 C.ar      1 JC5        -0.0753
     19 C18       -13.9480  -37.2340   -3.4570 C.ar      1 JC5         0.0084
     20 C19       -12.8380  -36.2910   -3.0850 C.3       1 JC5         0.0012
     21 C2         -8.5810  -38.6420   -6.3560 C.ar      1 JC5         0.0158
     22 C3         -8.7490  -40.1000   -5.9930 C.3       1 JC5        -0.0073
     23 C9        -10.2960  -34.1860   -6.1100 C.3       1 JC5         0.0723
     24 N2        -12.4920  -35.6470   -4.4170 N.4       1 JC5         0.2570
     25 O1        -10.5310  -35.5810   -6.3460 O.3       1 JC5        -0.3251
     26 H1         -4.5910  -35.9825   -9.0939 H         1 JC5         0.2006
     27 H2         -6.1969  -35.7341   -9.3561 H         1 JC5         0.2006
     28 H3         -5.6076  -37.2675   -9.2510 H         1 JC5         0.2006
     29 H4         -6.5398  -38.8724   -6.9503 H         1 JC5         0.0382
     30 H5         -5.6537  -35.2881   -7.0723 H         1 JC5         0.0955
     31 H6         -5.0106  -36.9614   -6.9576 H         1 JC5         0.0955
     32 H7         -8.0818  -34.9012   -7.2811 H         1 JC5         0.0399
     33 H8        -11.4147  -32.5285   -5.3828 H         1 JC5         0.0343
     34 H9        -12.3611  -33.7241   -6.3323 H         1 JC5         0.0343
     35 H10       -16.7956  -39.3675   -4.9469 H         1 JC5         0.0541
     36 H11       -14.1065  -38.5074   -1.7367 H         1 JC5         0.0539
     37 H12        -8.0156  -41.4229   -4.6379 H         1 JC5         0.2006
     38 H13        -8.1366  -39.8831   -4.0688 H         1 JC5         0.2006
     39 H14        -6.9280  -40.2822   -5.1126 H         1 JC5         0.2006
     40 H15       -12.7026  -38.8875   -6.0728 H         1 JC5         0.0567
     41 H16       -11.3949  -39.4276   -7.1794 H         1 JC5         0.0567
     42 H17       -12.0326  -37.7521   -7.2928 H         1 JC5         0.0567
     43 H18       -12.8828  -33.6630   -3.8855 H         1 JC5         0.0815
     44 H19       -11.2093  -34.2322   -3.5659 H         1 JC5         0.0815
     45 H20       -14.3335  -34.8677   -5.2754 H         1 JC5         0.0965
     46 H21       -13.4193  -35.9710   -6.3588 H         1 JC5         0.0965
     47 H22       -15.8383  -37.5079   -6.2549 H         1 JC5         0.0539
     48 H23       -15.9224  -39.8778   -2.6997 H         1 JC5         0.0541
     49 H24       -11.9763  -36.8351   -2.6710 H         1 JC5         0.0965
     50 H25       -13.1813  -35.5403   -2.3580 H         1 JC5         0.0965
     51 H26        -9.7982  -40.2863   -5.7203 H         1 JC5         0.0950
     52 H27        -8.4793  -40.7219   -6.8593 H         1 JC5         0.0950
     53 H28        -9.4868  -34.0598   -5.3756 H         1 JC5         0.0611
     54 H29       -10.0190  -33.6868   -7.0503 H         1 JC5         0.0611
     55 H30       -11.7347  -36.1670   -4.8319 H         1 JC5         0.2061
@<TRIPOS>BOND
     1    4    1 1  
     2    3    2 ar 
     3   21    2 ar 
     4    3    4 1  
     5    5    3 ar 
     6    6    5 ar 
     7    6   14 ar 
     8   25    6 1  
     9    7   15 1  
    10   23    7 1  
    11   16    8 1  
    12    8   17 ar 
    13   19    8 ar 
    14   17    9 ar 
    15   18    9 ar 
    16   10   18 ar 
    17   19   10 ar 
    18   22   11 1  
    19   13   12 1  
    20   14   13 1  
    21   14   21 ar 
    22   15   24 1  
    23   24   16 1  
    24   20   19 1  
    25   24   20 1  
    26   21   22 1  
    27   23   25 1  
    28    1   26 1  
    29    1   27 1  
    30    1   28 1  
    31    2   29 1  
    32    4   30 1  
    33    4   31 1  
    34    5   32 1  
    35    7   33 1  
    36    7   34 1  
    37    9   35 1  
    38   10   36 1  
    39   11   37 1  
    40   11   38 1  
    41   11   39 1  
    42   12   40 1  
    43   12   41 1  
    44   12   42 1  
    45   15   43 1  
    46   15   44 1  
    47   16   45 1  
    48   16   46 1  
    49   17   47 1  
    50   18   48 1  
    51   20   49 1  
    52   20   50 1  
    53   22   51 1  
    54   22   52 1  
    55   23   53 1  
    56   23   54 1  
    57   24   55 1  
@<TRIPOS>SUBSTRUCTURE
     1 JC5         1

