5orh_ligand
  -I-interpret- 

 31 32  0  0  0  0  0  0  0  0999 V2000
   15.9240  155.8100  380.2020 Cl  0  0  0  0  0
   17.3930  155.3050  379.4320 C   0  0  0  0  0
   18.0460  156.2080  378.6180 C   0  0  0  0  0
   19.2230  155.8510  377.9750 C   0  0  0  0  0
   19.9280  156.8240  377.0630 C   0  0  0  0  0
   20.4500  158.0050  377.7410 N   0  3  0  0  0
   19.7250  154.5770  378.1810 C   0  0  0  0  0
   19.0710  153.6720  378.9980 C   0  0  0  0  0
   17.8830  154.0170  379.6380 C   0  0  0  0  0
   17.1800  153.0040  380.4810 C   0  0  0  0  0
   17.6310  152.6680  381.7710 C   0  0  0  0  0
   18.8440  153.3120  382.3870 C   0  0  0  0  0
   16.0460  152.3810  379.9620 C   0  0  0  0  0
   15.3610  151.4340  380.7010 C   0  0  0  0  0
   15.7950  151.1000  381.9580 C   0  0  0  0  0
   16.9170  151.7090  382.4870 C   0  0  0  0  0
   17.6348  157.2079  378.4792 H   0  0  0  0  0
   19.1965  157.1688  376.3322 H   0  0  0  0  0
   20.7788  156.2996  376.6281 H   0  0  0  0  0
   20.9098  158.6105  377.0610 H   0  0  0  0  0
   19.6814  158.5096  378.1825 H   0  0  0  0  0
   21.1227  157.7179  378.4520 H   0  0  0  0  0
   20.6525  154.2817  377.6904 H   0  0  0  0  0
   19.4907  152.6765  379.1426 H   0  0  0  0  0
   19.7160  153.1112  381.7646 H   0  0  0  0  0
   18.6862  154.3882  382.4572 H   0  0  0  0  0
   19.0051  152.9013  383.3837 H   0  0  0  0  0
   15.6958  152.6430  378.9636 H   0  0  0  0  0
   14.4761  150.9531  380.2843 H   0  0  0  0  0
   15.2547  150.3537  382.5404 H   0  0  0  0  0
   17.2512  151.4330  383.4871 H   0  0  0  0  0
  1  2  1  0  0  0
  2  3  4  0  0  0
  2  9  4  0  0  0
  3  4  4  0  0  0
  4  5  1  0  0  0
  4  7  4  0  0  0
  5  6  1  0  0  0
  7  8  4  0  0  0
  8  9  4  0  0  0
  9 10  1  0  0  0
 10 11  4  0  0  0
 10 13  4  0  0  0
 11 12  1  0  0  0
 11 16  4  0  0  0
 13 14  4  0  0  0
 14 15  4  0  0  0
 15 16  4  0  0  0
  3 17  1  0  0  0
  5 18  1  0  0  0
  5 19  1  0  0  0
  6 20  1  0  0  0
  6 21  1  0  0  0
  6 22  1  0  0  0
  7 23  1  0  0  0
  8 24  1  0  0  0
 12 25  1  0  0  0
 12 26  1  0  0  0
 12 27  1  0  0  0
 13 28  1  0  0  0
 14 29  1  0  0  0
 15 30  1  0  0  0
 16 31  1  0  0  0
M  END
$$$$
