### 
### Created by X-TOOL on Wed Jan  1 15:39:37 2020
### 

@<TRIPOS>MOLECULE
5orh_ligand
   31    32     1     0     0
SMALL
GAST_HUCK


@<TRIPOS>ATOM
      1 CL         15.9240  155.8100  380.2020 Cl        1 A4N        -0.0721
      2 C13        17.3930  155.3050  379.4320 C.ar      1 A4N         0.0406
      3 C12        18.0460  156.2080  378.6180 C.ar      1 A4N        -0.0413
      4 C10        19.2230  155.8510  377.9750 C.ar      1 A4N         0.0017
      5 C11        19.9280  156.8240  377.0630 C.3       1 A4N        -0.0016
      6 N          20.4500  158.0050  377.7410 N.4       1 A4N         0.2309
      7 C9         19.7250  154.5770  378.1810 C.ar      1 A4N        -0.0549
      8 C8         19.0710  153.6720  378.9980 C.ar      1 A4N        -0.0612
      9 C7         17.8830  154.0170  379.6380 C.ar      1 A4N        -0.0140
     10 C6         17.1800  153.0040  380.4810 C.ar      1 A4N        -0.0193
     11 C1         17.6310  152.6680  381.7710 C.ar      1 A4N        -0.0384
     12 C          18.8440  153.3120  382.3870 C.3       1 A4N        -0.0302
     13 C5         16.0460  152.3810  379.9620 C.ar      1 A4N        -0.0617
     14 C4         15.3610  151.4340  380.7010 C.ar      1 A4N        -0.0689
     15 C3         15.7950  151.1000  381.9580 C.ar      1 A4N        -0.0691
     16 C2         16.9170  151.7090  382.4870 C.ar      1 A4N        -0.0603
     17 H1         17.6371  157.2024  378.4799 H         1 A4N         0.0564
     18 H2         19.2151  157.1546  376.2933 H         1 A4N         0.0980
     19 H3         20.7688  156.3011  376.5838 H         1 A4N         0.0980
     20 H4         20.9046  158.6042  377.0699 H         1 A4N         0.2008
     21 H5         21.1150  157.7225  378.4439 H         1 A4N         0.2008
     22 H6         19.6912  158.5046  378.1777 H         1 A4N         0.2008
     23 H7         20.6474  154.2833  377.6931 H         1 A4N         0.0561
     24 H8         19.4884  152.6820  379.1418 H         1 A4N         0.0599
     25 H9         19.0077  152.8983  383.3930 H         1 A4N         0.0395
     26 H10        18.6860  154.3982  382.4585 H         1 A4N         0.0395
     27 H11        19.7248  153.1100  381.7598 H         1 A4N         0.0395
     28 H12        15.6977  152.6416  378.9691 H         1 A4N         0.0597
     29 H13        14.4809  150.9557  380.2865 H         1 A4N         0.0559
     30 H14        15.2577  150.3578  382.5372 H         1 A4N         0.0594
     31 H15        17.2494  151.4345  383.4816 H         1 A4N         0.0554
@<TRIPOS>BOND
     1    1    2 1  
     2    2    3 ar 
     3    2    9 ar 
     4    3    4 ar 
     5    4    5 1  
     6    4    7 ar 
     7    5    6 1  
     8    7    8 ar 
     9    8    9 ar 
    10    9   10 1  
    11   10   11 ar 
    12   10   13 ar 
    13   11   12 1  
    14   11   16 ar 
    15   13   14 ar 
    16   14   15 ar 
    17   15   16 ar 
    18    3   17 1  
    19    5   18 1  
    20    5   19 1  
    21    6   20 1  
    22    6   21 1  
    23    6   22 1  
    24    7   23 1  
    25    8   24 1  
    26   12   25 1  
    27   12   26 1  
    28   12   27 1  
    29   13   28 1  
    30   14   29 1  
    31   15   30 1  
    32   16   31 1  
@<TRIPOS>SUBSTRUCTURE
     1 A4N         1

