1v2s_ligand
  -I-interpret- 

 17 17  0  0  0  0  0  0  0  0999 V2000
   53.2740   67.0970  -28.8380 C   0  0  0  0  0
   52.6670   66.6830  -30.1090 C   0  0  0  0  0
   52.4040   67.6560  -31.1590 C   0  0  0  0  0
   52.7450   69.0580  -30.9540 C   0  0  0  0  0
   53.3450   69.4830  -29.7050 C   0  0  0  0  0
   53.6110   68.5090  -28.6500 C   0  0  0  0  0
   53.5520   66.0670  -27.7270 C   0  0  0  0  0
   54.1940   66.4370  -26.6360 N   0  0  0  0  0
   53.1490   64.8200  -27.8770 N   0  0  0  0  0
   52.4105   65.6356  -30.2680 H   0  0  0  0  0
   51.9523   67.3363  -32.0981 H   0  0  0  0  0
   52.5488   69.7871  -31.7401 H   0  0  0  0  0
   53.5983   70.5322  -29.5528 H   0  0  0  0  0
   54.0644   68.8363  -27.7144 H   0  0  0  0  0
   54.3826   65.7567  -25.8997 H   0  0  0  0  0
   53.3332   64.1330  -27.1459 H   0  0  0  0  0
   52.6531   64.5427  -28.7241 H   0  0  0  0  0
  1  2  4  0  0  0
  1  6  4  0  0  0
  1  7  1  0  0  0
  2  3  4  0  0  0
  3  4  4  0  0  0
  4  5  4  0  0  0
  5  6  4  0  0  0
  7  8  2  0  0  0
  7  9  1  0  0  0
  2 10  1  0  0  0
  3 11  1  0  0  0
  4 12  1  0  0  0
  5 13  1  0  0  0
  6 14  1  0  0  0
  8 15  1  0  0  0
  9 16  1  0  0  0
  9 17  1  0  0  0
M  END
$$$$
