### 
### Created by X-TOOL on Mon Sep 10 21:12:51 2018
### 

@<TRIPOS>MOLECULE
1v2s_ligand
   18    18     1     0     0
SMALL
GAST_HUCK


@<TRIPOS>ATOM
      1 C1         53.2740   67.0970  -28.8380 C.ar      1 BEN         0.0260
      2 C2         52.6670   66.6830  -30.1090 C.ar      1 BEN        -0.0565
      3 C3         52.4040   67.6560  -31.1590 C.ar      1 BEN        -0.0618
      4 C4         52.7450   69.0580  -30.9540 C.ar      1 BEN        -0.0618
      5 C5         53.3450   69.4830  -29.7050 C.ar      1 BEN        -0.0618
      6 C6         53.6110   68.5090  -28.6500 C.ar      1 BEN        -0.0565
      7 C          53.5520   66.0670  -27.7270 C.cat     1 BEN         0.2356
      8 N1         54.1940   66.4370  -26.6360 N.pl3     1 BEN        -0.2721
      9 N2         53.1490   64.8200  -27.8770 N.pl3     1 BEN        -0.2721
     10 H1         52.4119   65.6414  -30.2672 H         1 BEN         0.0617
     11 H2         51.9548   67.3381  -32.0929 H         1 BEN         0.0618
     12 H3         52.5499   69.7831  -31.7358 H         1 BEN         0.0618
     13 H4         53.5969   70.5264  -29.5536 H         1 BEN         0.0618
     14 H5         54.0619   68.8345  -27.7195 H         1 BEN         0.0617
     15 H6         54.3816   65.7508  -25.8911 H         1 BEN         0.3181
     16 H7         54.5078   67.4122  -26.5288 H         1 BEN         0.3181
     17 H8         52.6483   64.5400  -28.7324 H         1 BEN         0.3181
     18 H9         53.3350   64.1263  -27.1387 H         1 BEN         0.3181
@<TRIPOS>BOND
     1    1    2 ar 
     2    1    6 ar 
     3    1    7 1  
     4    2    3 ar 
     5    3    4 ar 
     6    4    5 ar 
     7    5    6 ar 
     8    7    8 ar 
     9    7    9 ar 
    10    2   10 1  
    11    3   11 1  
    12    4   12 1  
    13    5   13 1  
    14    6   14 1  
    15    8   15 1  
    16    8   16 1  
    17    9   17 1  
    18    9   18 1  
@<TRIPOS>SUBSTRUCTURE
     1 BEN         1

