5i7x_ligand
  -I-interpret- 

 38 40  0  0  0  0  0  0  0  0999 V2000
  -12.8050    6.0710    9.3220 C   0  0  0  0  0
  -13.2150    8.5040    9.3040 C   0  0  0  0  0
  -12.6230   10.7870    9.8690 C   0  0  0  0  0
  -13.2060    4.7740    9.5630 C   0  0  0  0  0
  -14.9540    6.8870   10.0960 C   0  0  0  0  0
  -16.7030    5.2480   10.8580 C   0  0  0  0  0
  -14.4720    4.5180   10.0620 C   0  0  0  0  0
  -17.4920    4.4180   10.1210 C   0  0  0  0  0
  -19.5080    3.1570    9.6780 C   0  0  0  0  0
  -20.4300    4.1360   11.9900 O   0  0  0  0  0
  -19.2920    4.5040   11.6760 C   0  0  0  0  0
  -18.7390    4.0650   10.5340 N   0  0  0  0  0
  -18.5510    5.3850   12.4880 C   0  0  0  0  0
  -18.8400    6.0080   13.6790 N   0  0  0  0  0
  -17.7660    6.7730   14.0380 C   0  0  0  0  0
  -16.7880    6.6600   13.1120 C   0  0  0  0  0
  -17.2590    5.7850   12.1090 C   0  0  0  0  0
  -15.3500    5.5720   10.3460 C   0  0  0  0  0
  -13.6670    7.1310    9.6030 C   0  0  0  0  0
  -12.9660    8.7730    8.1410 O   0  0  0  0  0
  -13.0760    9.4490   10.2560 N   0  0  0  0  0
  -13.3440    9.1830   11.6700 C   0  0  0  0  0
  -11.8145    6.2680    8.9119 H   0  0  0  0  0
  -13.3776   11.5208   10.1523 H   0  0  0  0  0
  -11.6857   11.0131   10.3774 H   0  0  0  0  0
  -12.4697   10.8194    8.7903 H   0  0  0  0  0
  -12.5245    3.9479    9.3601 H   0  0  0  0  0
  -15.6390    7.7141   10.2825 H   0  0  0  0  0
  -14.7876    3.4892   10.2350 H   0  0  0  0  0
  -17.1147    4.0266    9.1762 H   0  0  0  0  0
  -19.6487    3.6148    8.6988 H   0  0  0  0  0
  -18.9658    2.2180    9.5670 H   0  0  0  0  0
  -20.4794    2.9654   10.1339 H   0  0  0  0  0
  -17.7068    7.3843   14.9385 H   0  0  0  0  0
  -15.8161    7.1529   13.1352 H   0  0  0  0  0
  -12.4346    9.3471   12.2480 H   0  0  0  0  0
  -14.1265    9.8548   12.0228 H   0  0  0  0  0
  -13.6699    8.1496   11.7886 H   0  0  0  0  0
  4  1  4  0  0  0
 19  1  4  0  0  0
 19  2  1  0  0  0
  2 20  2  0  0  0
  2 21  1  0  0  0
 21  3  1  0  0  0
  7  4  4  0  0  0
 18  5  4  0  0  0
  5 19  4  0  0  0
  8  6  2  0  0  0
  6 17  1  0  0  0
  6 18  1  0  0  0
 18  7  4  0  0  0
 12  8  1  0  0  0
 12  9  1  0  0  0
 11 10  2  0  0  0
 11 12  1  0  0  0
 11 13  1  0  0  0
 13 14  4  0  0  0
 13 17  4  0  0  0
 14 15  4  0  0  0
 15 16  4  0  0  0
 16 17  4  0  0  0
 21 22  1  0  0  0
  1 23  1  0  0  0
  3 24  1  0  0  0
  3 25  1  0  0  0
  3 26  1  0  0  0
  4 27  1  0  0  0
  5 28  1  0  0  0
  7 29  1  0  0  0
  8 30  1  0  0  0
  9 31  1  0  0  0
  9 32  1  0  0  0
  9 33  1  0  0  0
 15 34  1  0  0  0
 16 35  1  0  0  0
 22 36  1  0  0  0
 22 37  1  0  0  0
 22 38  1  0  0  0
M  END
$$$$
