### 
### Created by X-TOOL on Mon Sep 10 21:13:26 2018
### 

@<TRIPOS>MOLECULE
5i7x_ligand
   39    41     1     0     0
SMALL
GAST_HUCK


@<TRIPOS>ATOM
      1 C4        -12.8050    6.0710    9.3220 C.ar      1 67B        -0.0504
      2 C2        -13.2150    8.5040    9.3040 C.2       1 67B         0.2050
      3 C1        -12.6230   10.7870    9.8690 C.3       1 67B         0.0218
      4 C5        -13.2060    4.7740    9.5630 C.ar      1 67B        -0.0651
      5 C8        -14.9540    6.8870   10.0960 C.ar      1 67B        -0.0468
      6 C9        -16.7030    5.2480   10.8580 C.2       1 67B        -0.0153
      7 C6        -14.4720    4.5180   10.0620 C.ar      1 67B        -0.0627
      8 C10       -17.4920    4.4180   10.1210 C.2       1 67B         0.0588
      9 C11       -19.5080    3.1570    9.6780 C.3       1 67B         0.0555
     10 O1        -20.4300    4.1360   11.9900 O.2       1 67B        -0.4057
     11 C12       -19.2920    4.5040   11.6760 C.2       1 67B         0.2381
     12 N1        -18.7390    4.0650   10.5340 N.am      1 67B        -0.2151
     13 C13       -18.5510    5.3850   12.4880 C.2       1 67B         0.1256
     14 N2        -18.8400    6.0080   13.6790 N.pl3     1 67B        -0.2840
     15 C16       -17.7660    6.7730   14.0380 C.2       1 67B         0.0187
     16 C15       -16.7880    6.6600   13.1120 C.2       1 67B        -0.0722
     17 C14       -17.2590    5.7850   12.1090 C.2       1 67B        -0.0362
     18 C7        -15.3500    5.5720   10.3460 C.ar      1 67B        -0.0387
     19 C3        -13.6670    7.1310    9.6030 C.ar      1 67B         0.0415
     20 O         -12.9660    8.7730    8.1410 O.2       1 67B        -0.3845
     21 N         -13.0760    9.4490   10.2560 N.am      1 67B        -0.2786
     22 C         -13.3440    9.1830   11.6700 C.3       1 67B         0.0218
     23 H1        -11.8199    6.2669    8.9142 H         1 67B         0.0597
     24 H2        -12.5655   11.4271   10.7617 H         1 67B         0.0486
     25 H3        -13.3344   11.2217    9.1514 H         1 67B         0.0486
     26 H4        -11.6289   10.7171    9.4033 H         1 67B         0.0486
     27 H5        -12.5282    3.9524    9.3613 H         1 67B         0.0605
     28 H6        -15.6352    7.7095   10.2815 H         1 67B         0.0600
     29 H7        -14.7859    3.4948   10.2341 H         1 67B         0.0579
     30 H8        -17.1150    4.0270    9.1771 H         1 67B         0.1124
     31 H9        -18.9122    2.8971    8.7906 H         1 67B         0.0596
     32 H10       -20.4390    3.6507    9.3628 H         1 67B         0.0596
     33 H11       -19.7498    2.2417   10.2382 H         1 67B         0.0596
     34 H12       -19.7172    5.9141   14.2106 H         1 67B         0.2309
     35 H13       -17.7069    7.3837   14.9377 H         1 67B         0.0890
     36 H14       -15.8170    7.1524   13.1352 H         1 67B         0.0281
     37 H15       -13.6730    8.1403   11.7910 H         1 67B         0.0486
     38 H16       -14.1336    9.8604   12.0273 H         1 67B         0.0486
     39 H17       -12.4269    9.3482   12.2545 H         1 67B         0.0486
@<TRIPOS>BOND
     1    4    1 ar 
     2   19    1 ar 
     3   19    2 1  
     4    2   20 2  
     5    2   21 am 
     6   21    3 1  
     7    7    4 ar 
     8   18    5 ar 
     9    5   19 ar 
    10    8    6 2  
    11    6   17 1  
    12    6   18 1  
    13   18    7 ar 
    14   12    8 1  
    15   12    9 1  
    16   11   10 2  
    17   11   12 am 
    18   11   13 1  
    19   13   14 1  
    20   13   17 2  
    21   14   15 1  
    22   15   16 2  
    23   16   17 1  
    24   21   22 1  
    25    1   23 1  
    26    3   24 1  
    27    3   25 1  
    28    3   26 1  
    29    4   27 1  
    30    5   28 1  
    31    7   29 1  
    32    8   30 1  
    33    9   31 1  
    34    9   32 1  
    35    9   33 1  
    36   14   34 1  
    37   15   35 1  
    38   16   36 1  
    39   22   37 1  
    40   22   38 1  
    41   22   39 1  
@<TRIPOS>SUBSTRUCTURE
     1 67B         1

