4cd6_ligand
     RDKit          3D

 45 46  0  0  0  0  0  0  0  0999 V2000
   -5.2573  -17.7240  -18.6989 O   0  0  0  0  0  0  0  0  0  0  0  0
   -4.8965  -17.9495  -20.0751 C   0  0  1  0  0  0  0  0  0  0  0  0
   -3.7986  -19.0035  -20.1045 C   0  0  2  0  0  0  0  0  0  0  0  0
   -2.6064  -18.4145  -19.5671 O   0  0  0  0  0  0  0  0  0  0  0  0
   -3.5374  -19.6093  -21.4937 C   0  0  0  0  0  0  0  0  0  0  0  0
   -4.7669  -19.7456  -22.2808 N   0  0  0  0  0  0  0  0  0  0  0  0
   -5.7743  -18.6744  -22.2833 C   0  0  0  0  0  0  0  0  0  0  0  0
   -6.1481  -18.3858  -20.8393 C   0  0  2  0  0  0  0  0  0  0  0  0
   -7.3289  -17.4221  -20.7107 C   0  0  0  0  0  0  0  0  0  0  0  0
   -7.0353  -16.0843  -21.1400 O   0  0  0  0  0  0  0  0  0  0  0  0
   -4.7106  -16.7595  -17.8052 C   0  0  1  0  0  0  0  0  0  0  0  0
   -4.7747  -17.0924  -16.3242 C   0  0  2  0  0  0  0  0  0  0  0  0
   -3.8661  -16.0896  -15.6197 C   0  0  2  0  0  0  0  0  0  0  0  0
   -2.4695  -16.1457  -16.2258 C   0  0  1  0  0  0  0  0  0  0  0  0
   -2.4677  -16.0247  -17.7598 C   0  0  1  0  0  0  0  0  0  0  0  0
   -1.0397  -16.1732  -18.3052 C   0  0  0  0  0  0  0  0  0  0  0  0
   -4.3505  -18.4510  -16.0645 O   0  0  0  0  0  0  0  0  0  0  0  0
   -3.7679  -16.3646  -14.2249 O   0  0  0  0  0  0  0  0  0  0  0  0
   -1.7060  -15.0689  -15.6906 O   0  0  0  0  0  0  0  0  0  0  0  0
   -3.3862  -16.9912  -18.3079 O   0  0  0  0  0  0  0  0  0  0  0  0
   -0.9682  -15.9346  -19.7215 O   0  0  0  0  0  0  0  0  0  0  0  0
   -4.5151  -17.0480  -20.5545 H   0  0  0  0  0  0  0  0  0  0  0  0
   -4.1312  -19.8466  -19.4990 H   0  0  0  0  0  0  0  0  0  0  0  0
   -2.8105  -17.9867  -18.7322 H   0  0  0  0  0  0  0  0  0  0  0  0
   -3.1125  -20.6034  -21.3549 H   0  0  0  0  0  0  0  0  0  0  0  0
   -2.8631  -18.9432  -22.0320 H   0  0  0  0  0  0  0  0  0  0  0  0
   -5.2474  -20.5411  -21.8603 H   0  0  0  0  0  0  0  0  0  0  0  0
   -4.4430  -19.7881  -23.2471 H   0  0  0  0  0  0  0  0  0  0  0  0
   -6.6541  -18.9834  -22.8477 H   0  0  0  0  0  0  0  0  0  0  0  0
   -5.3729  -17.7784  -22.7569 H   0  0  0  0  0  0  0  0  0  0  0  0
   -6.5167  -19.3011  -20.3763 H   0  0  0  0  0  0  0  0  0  0  0  0
   -7.5947  -17.3733  -19.6547 H   0  0  0  0  0  0  0  0  0  0  0  0
   -8.1276  -17.8001  -21.3489 H   0  0  0  0  0  0  0  0  0  0  0  0
   -7.4212  -15.4592  -20.5220 H   0  0  0  0  0  0  0  0  0  0  0  0
   -5.1737  -15.7728  -17.8023 H   0  0  0  0  0  0  0  0  0  0  0  0
   -5.7988  -17.0235  -15.9573 H   0  0  0  0  0  0  0  0  0  0  0  0
   -4.3014  -15.0991  -15.7528 H   0  0  0  0  0  0  0  0  0  0  0  0
   -2.0458  -17.1186  -15.9766 H   0  0  0  0  0  0  0  0  0  0  0  0
   -2.8086  -15.0355  -18.0656 H   0  0  0  0  0  0  0  0  0  0  0  0
   -0.7110  -17.1954  -18.1177 H   0  0  0  0  0  0  0  0  0  0  0  0
   -0.4091  -15.4374  -17.8063 H   0  0  0  0  0  0  0  0  0  0  0  0
   -4.7029  -18.7390  -15.2192 H   0  0  0  0  0  0  0  0  0  0  0  0
   -2.8462  -16.4934  -13.9893 H   0  0  0  0  0  0  0  0  0  0  0  0
   -0.7882  -15.1665  -15.9547 H   0  0  0  0  0  0  0  0  0  0  0  0
   -0.2413  -15.3359  -19.9077 H   0  0  0  0  0  0  0  0  0  0  0  0
  1  2  1  0
  1 11  1  0
  2  3  1  0
  2  8  1  0
  3  4  1  0
  3  5  1  0
  5  6  1  0
  6  7  1  0
  7  8  1  0
  8  9  1  0
  9 10  1  0
 11 12  1  0
 11 20  1  0
 12 13  1  0
 12 17  1  0
 13 14  1  0
 13 18  1  0
 14 15  1  0
 14 19  1  0
 15 16  1  0
 15 20  1  0
 16 21  1  0
  2 22  1  6
  3 23  1  1
  4 24  1  0
  5 25  1  0
  5 26  1  0
  6 27  1  0
  6 28  1  0
  7 29  1  0
  7 30  1  0
  8 31  1  1
  9 32  1  0
  9 33  1  0
 10 34  1  0
 11 35  1  1
 12 36  1  1
 13 37  1  1
 14 38  1  6
 15 39  1  1
 16 40  1  0
 16 41  1  0
 17 42  1  0
 18 43  1  0
 19 44  1  0
 21 45  1  0
M  CHG  1   6   1
M  END
