4f3k_ligand
  -I-interpret- 

 51 53  0  0  0  0  0  0  0  0999 V2000
   -1.6840   -6.7930   16.0390 O   0  0  0  0  0
   -2.8460   -6.7580   16.5070 C   0  0  0  0  0
   -3.8060   -7.4160   16.0870 O   0  0  0  0  0
   -3.1130   -5.8920   17.7330 C   0  0  0  0  0
   -1.9090   -5.8060   18.5590 N   0  3  0  0  0
   -3.5540   -4.5290   17.2570 C   0  0  0  0  0
   -4.2280   -3.8950   18.4370 C   0  0  0  0  0
   -4.9660   -2.2780   17.9110 S   0  0  0  0  0
   -4.8410   -1.3200   19.4420 C   0  0  0  0  0
   -6.0430   -1.6730   20.3650 C   0  0  0  0  0
   -5.8660   -0.9630   21.6800 C   0  0  0  0  0
   -7.3620   -1.1660   19.8550 C   0  0  0  0  0
   -8.4560   -1.9370   20.4350 O   0  0  0  0  0
   -7.4470    0.3130   20.3160 C   0  0  0  0  0
   -6.9610    0.0720   21.7130 N   0  3  0  0  0
   -6.6280    1.2090   22.5340 C   0  0  0  0  0
   -5.3410    2.0510   22.1410 C   0  0  0  0  0
   -4.2050    2.0850   22.8570 C   0  0  0  0  0
   -3.3600    2.8940   22.2420 N   0  0  0  0  0
   -3.9520    3.4340   21.1540 C   0  0  0  0  0
   -5.2020    2.8890   21.0970 C   0  0  0  0  0
   -6.0490    3.2140   20.0910 N   0  0  0  0  0
   -5.6320    4.1150   19.1010 C   0  0  0  0  0
   -4.3510    4.6430   19.1540 N   0  0  0  0  0
   -3.5530    4.3130   20.1890 C   0  0  0  0  0
   -2.3140    4.8520   20.2260 N   0  0  0  0  0
   -1.1219   -6.1940   16.5359 H   0  0  0  0  0
   -3.8980   -6.3296   18.3497 H   0  0  0  0  0
   -1.6391   -6.7415   18.8629 H   0  0  0  0  0
   -1.1526   -5.3930   18.0134 H   0  0  0  0  0
   -2.0986   -5.2237   19.3747 H   0  0  0  0  0
   -4.2268   -4.6014   16.4025 H   0  0  0  0  0
   -2.7097   -3.9333   16.9101 H   0  0  0  0  0
   -3.4998   -3.7266   19.2303 H   0  0  0  0  0
   -5.0122   -4.5534   18.8107 H   0  0  0  0  0
   -4.8580   -0.2551   19.2100 H   0  0  0  0  0
   -3.9068   -1.5608   19.9493 H   0  0  0  0  0
   -6.0557   -2.7612   20.4268 H   0  0  0  0  0
   -4.8783   -0.5099   21.7654 H   0  0  0  0  0
   -5.9335   -1.6504   22.5232 H   0  0  0  0  0
   -7.4387   -1.2574   18.7715 H   0  0  0  0  0
   -9.2925   -1.6040   20.1019 H   0  0  0  0  0
   -8.4169    0.8000   20.2147 H   0  0  0  0  0
   -6.8903    1.0403   19.7251 H   0  0  0  0  0
   -7.7827   -0.2691   22.2119 H   0  0  0  0  0
   -6.4200    0.8031   23.5240 H   0  0  0  0  0
   -7.4680    1.8965   22.4347 H   0  0  0  0  0
   -4.0138    1.5412   23.7821 H   0  0  0  0  0
   -6.3098    4.3983   18.2957 H   0  0  0  0  0
   -1.6715    4.6024   20.9779 H   0  0  0  0  0
   -2.0215    5.5083   19.5020 H   0  0  0  0  0
  1  2  1  0  0  0
  2  3  2  0  0  0
  2  4  1  0  0  0
  4  5  1  0  0  0
  4  6  1  0  0  0
  6  7  1  0  0  0
  7  8  1  0  0  0
  8  9  1  0  0  0
  9 10  1  0  0  0
 10 11  1  0  0  0
 10 12  1  0  0  0
 11 15  1  0  0  0
 12 13  1  0  0  0
 12 14  1  0  0  0
 14 15  1  0  0  0
 15 16  1  0  0  0
 16 17  1  0  0  0
 17 18  4  0  0  0
 17 21  4  0  0  0
 18 19  4  0  0  0
 19 20  4  0  0  0
 20 21  4  0  0  0
 20 25  4  0  0  0
 21 22  4  0  0  0
 22 23  4  0  0  0
 23 24  4  0  0  0
 24 25  4  0  0  0
 25 26  1  0  0  0
  1 27  1  0  0  0
  4 28  1  0  0  0
  5 29  1  0  0  0
  5 30  1  0  0  0
  5 31  1  0  0  0
  6 32  1  0  0  0
  6 33  1  0  0  0
  7 34  1  0  0  0
  7 35  1  0  0  0
  9 36  1  0  0  0
  9 37  1  0  0  0
 10 38  1  0  0  0
 11 39  1  0  0  0
 11 40  1  0  0  0
 12 41  1  0  0  0
 13 42  1  0  0  0
 14 43  1  0  0  0
 14 44  1  0  0  0
 15 45  1  0  0  0
 16 46  1  0  0  0
 16 47  1  0  0  0
 18 48  1  0  0  0
 23 49  1  0  0  0
 26 50  1  0  0  0
 26 51  1  0  0  0
M  END
$$$$
