### 
### Created by X-TOOL on Mon Sep 10 21:13:13 2018
### 

@<TRIPOS>MOLECULE
4f3k_ligand
   51    53     1     0     0
SMALL
GAST_HUCK


@<TRIPOS>ATOM
      1 O          -1.6840   -6.7930   16.0390 O.co2     1 HCE        -0.5643
      2 C          -2.8460   -6.7580   16.5070 C.2       1 HCE         0.0844
      3 OXT        -3.8060   -7.4160   16.0870 O.co2     1 HCE        -0.5643
      4 CA         -3.1130   -5.8920   17.7330 C.3       1 HCE         0.0291
      5 N          -1.9090   -5.8060   18.5590 N.4       1 HCE         0.2327
      6 CB         -3.5540   -4.5290   17.2570 C.3       1 HCE         0.0114
      7 CG         -4.2280   -3.8950   18.4370 C.3       1 HCE         0.0004
      8 S5'        -4.9660   -2.2780   17.9110 S.3       1 HCE        -0.1599
      9 C5'        -4.8410   -1.3200   19.4420 C.3       1 HCE         0.0039
     10 C4'        -6.0430   -1.6730   20.3650 C.3       1 HCE         0.0391
     11 C1'        -5.8660   -0.9630   21.6800 C.3       1 HCE        -0.0248
     12 C3'        -7.3620   -1.1660   19.8550 C.3       1 HCE         0.1032
     13 O3'        -8.4560   -1.9370   20.4350 O.3       1 HCE        -0.3860
     14 C2'        -7.4470    0.3130   20.3160 C.3       1 HCE        -0.0040
     15 N1'        -6.9610    0.0720   21.7130 N.4       1 HCE         0.2442
     16 C10        -6.6280    1.2090   22.5340 C.3       1 HCE        -0.0117
     17 C9         -5.3410    2.0510   22.1410 C.2       1 HCE         0.0166
     18 C8         -4.2050    2.0850   22.8570 C.2       1 HCE         0.0326
     19 N7         -3.3600    2.8940   22.2420 N.pl3     1 HCE        -0.2768
     20 C5         -3.9520    3.4340   21.1540 C.ar      1 HCE         0.1304
     21 C4         -5.2020    2.8890   21.0970 C.ar      1 HCE         0.0483
     22 N3         -6.0490    3.2140   20.0910 N.ar      1 HCE        -0.3132
     23 C2         -5.6320    4.1150   19.1010 C.ar      1 HCE         0.0439
     24 N1         -4.3510    4.6430   19.1540 N.ar      1 HCE        -0.2741
     25 C6         -3.5530    4.3130   20.1890 C.ar      1 HCE         0.1459
     26 N6         -2.3140    4.8520   20.2260 N.pl3     1 HCE        -0.3157
     27 H1         -3.9192   -6.3431   18.3301 H         1 HCE         0.1024
     28 H2         -2.0957   -5.2319   19.3662 H         1 HCE         0.2010
     29 H3         -1.1611   -5.3966   18.0213 H         1 HCE         0.2010
     30 H4         -1.6405   -6.7301   18.8588 H         1 HCE         0.2010
     31 H5         -4.2576   -4.6236   16.4168 H         1 HCE         0.0347
     32 H6         -2.6857   -3.9314   16.9427 H         1 HCE         0.0347
     33 H7         -3.4904   -3.7220   19.2344 H         1 HCE         0.0379
     34 H8         -5.0218   -4.5592   18.8095 H         1 HCE         0.0379
     35 H9         -4.8608   -0.2457   19.2066 H         1 HCE         0.0382
     36 H10        -3.8991   -1.5659   19.9542 H         1 HCE         0.0382
     37 H11        -6.0846   -2.7633   20.5046 H         1 HCE         0.0388
     38 H12        -4.8778   -0.4825   21.7303 H         1 HCE         0.0818
     39 H13        -5.9742   -1.6676   22.5178 H         1 HCE         0.0818
     40 H14        -7.4035   -1.2320   18.7578 H         1 HCE         0.0652
     41 H15        -9.2837   -1.6075   20.1054 H         1 HCE         0.2100
     42 H16        -8.4728    0.7089   20.2857 H         1 HCE         0.0840
     43 H17        -6.7812    0.9753   19.7432 H         1 HCE         0.0840
     44 H18        -7.7388   -0.3581   22.1885 H         1 HCE         0.2042
     45 H19        -6.4793    0.8412   23.5599 H         1 HCE         0.0901
     46 H20        -7.4883    1.8940   22.5111 H         1 HCE         0.0901
     47 H21        -4.0140    1.5417   23.7813 H         1 HCE         0.0886
     48 H22        -2.3946    3.0844   22.5465 H         1 HCE         0.2266
     49 H23        -6.3060    4.3967   18.3001 H         1 HCE         0.0956
     50 H24        -2.0187    5.5147   19.4949 H         1 HCE         0.1805
     51 H25        -1.6652    4.6000   20.9853 H         1 HCE         0.1805
@<TRIPOS>BOND
     1    1    2 ar 
     2    2    3 ar 
     3    2    4 1  
     4    4    5 1  
     5    4    6 1  
     6    6    7 1  
     7    7    8 1  
     8    8    9 1  
     9    9   10 1  
    10   10   11 1  
    11   10   12 1  
    12   11   15 1  
    13   12   13 1  
    14   12   14 1  
    15   14   15 1  
    16   15   16 1  
    17   16   17 1  
    18   17   18 2  
    19   17   21 1  
    20   18   19 1  
    21   19   20 1  
    22   20   21 ar 
    23   20   25 ar 
    24   21   22 ar 
    25   22   23 ar 
    26   23   24 ar 
    27   24   25 ar 
    28   25   26 1  
    29    4   27 1  
    30    5   28 1  
    31    5   29 1  
    32    5   30 1  
    33    6   31 1  
    34    6   32 1  
    35    7   33 1  
    36    7   34 1  
    37    9   35 1  
    38    9   36 1  
    39   10   37 1  
    40   11   38 1  
    41   11   39 1  
    42   12   40 1  
    43   13   41 1  
    44   14   42 1  
    45   14   43 1  
    46   15   44 1  
    47   16   45 1  
    48   16   46 1  
    49   18   47 1  
    50   19   48 1  
    51   23   49 1  
    52   26   50 1  
    53   26   51 1  
@<TRIPOS>SUBSTRUCTURE
     1 HCE         1

