2pvl_ligand
  -I-interpret- 

 47 50  0  0  0  0  0  0  0  0999 V2000
   19.9040    9.4950   19.7460 N   0  0  0  0  0
   20.1960    9.7280   18.4440 C   0  0  0  0  0
   21.1950    8.8240   18.0370 C   0  0  0  0  0
   21.4780    8.0190   19.2080 C   0  0  0  0  0
   20.6740    8.4740   20.2140 N   0  0  0  0  0
   22.3180    7.0010   19.4520 N   0  0  0  0  0
   22.3100    6.4970   20.6840 C   0  0  0  0  0
   21.5420    6.9320   21.6780 N   0  0  0  0  0
   20.7160    7.9390   21.4220 C   0  0  0  0  0
   19.9170    8.4610   22.3860 N   0  0  0  0  0
   20.0020    8.1390   23.7050 C   0  0  0  0  0
   20.1590    6.8170   24.1280 C   0  0  0  0  0
   20.1270    6.4850   25.4800 C   0  0  0  0  0
   19.9420    7.4890   26.4320 C   0  0  0  0  0
   19.8490    8.8180   26.0200 C   0  0  0  0  0
   19.8850    9.1460   24.6640 C   0  0  0  0  0
   23.1660    5.4020   20.9610 N   0  0  0  0  0
   23.2550    4.8370   22.3190 C   0  0  0  0  0
   22.5450    3.4810   22.4110 C   0  0  0  0  0
   22.9970    2.6210   21.3000 N   0  3  0  0  0
   22.8320    3.1840   19.9500 C   0  0  0  0  0
   23.5200    4.5420   19.8170 C   0  0  0  0  0
   22.4740    1.2450   21.3430 C   0  0  0  0  0
   20.9450    1.2080   21.2520 C   0  0  0  0  0
   21.8110    8.7640   16.7440 C   0  0  0  0  0
   22.3100    8.8090   15.6980 N   0  0  0  0  0
   19.7339   10.4894   17.8156 H   0  0  0  0  0
   19.2077    9.1376   22.1041 H   0  0  0  0  0
   20.3091    6.0318   23.3871 H   0  0  0  0  0
   20.2457    5.4477   25.7929 H   0  0  0  0  0
   19.8707    7.2360   27.4898 H   0  0  0  0  0
   19.7472    9.6080   26.7640 H   0  0  0  0  0
   19.8217   10.1890   24.3539 H   0  0  0  0  0
   22.7734    5.5267   23.0122 H   0  0  0  0  0
   24.3071    4.6933   22.5649 H   0  0  0  0  0
   21.4668    3.6271   22.3455 H   0  0  0  0  0
   22.7847    3.0061   23.3624 H   0  0  0  0  0
   24.0010    2.5810   21.4755 H   0  0  0  0  0
   21.7669    3.3183   19.7614 H   0  0  0  0  0
   23.2842    2.4979   19.2338 H   0  0  0  0  0
   24.6001    4.3962   19.7992 H   0  0  0  0  0
   23.1924    5.0207   18.8941 H   0  0  0  0  0
   22.7695    0.7979   22.2921 H   0  0  0  0  0
   22.8791    0.7000   20.4904 H   0  0  0  0  0
   20.5190    1.7607   22.0894 H   0  0  0  0  0
   20.6270    1.6642   20.3145 H   0  0  0  0  0
   20.6051    0.1730   21.2876 H   0  0  0  0  0
  1  2  4  0  0  0
  1  5  4  0  0  0
  2  3  4  0  0  0
  3  4  4  0  0  0
  3 25  1  0  0  0
  4  5  4  0  0  0
  4  6  4  0  0  0
  5  9  4  0  0  0
  6  7  4  0  0  0
  7  8  4  0  0  0
  7 17  1  0  0  0
  8  9  4  0  0  0
  9 10  1  0  0  0
 10 11  1  0  0  0
 11 12  4  0  0  0
 11 16  4  0  0  0
 12 13  4  0  0  0
 13 14  4  0  0  0
 14 15  4  0  0  0
 15 16  4  0  0  0
 17 18  1  0  0  0
 17 22  1  0  0  0
 18 19  1  0  0  0
 19 20  1  0  0  0
 20 21  1  0  0  0
 20 23  1  0  0  0
 21 22  1  0  0  0
 23 24  1  0  0  0
 25 26  3  0  0  0
  2 27  1  0  0  0
 10 28  1  0  0  0
 12 29  1  0  0  0
 13 30  1  0  0  0
 14 31  1  0  0  0
 15 32  1  0  0  0
 16 33  1  0  0  0
 18 34  1  0  0  0
 18 35  1  0  0  0
 19 36  1  0  0  0
 19 37  1  0  0  0
 20 38  1  0  0  0
 21 39  1  0  0  0
 21 40  1  0  0  0
 22 41  1  0  0  0
 22 42  1  0  0  0
 23 43  1  0  0  0
 23 44  1  0  0  0
 24 45  1  0  0  0
 24 46  1  0  0  0
 24 47  1  0  0  0
M  END
$$$$
