### 
### Created by X-TOOL on Mon Sep 10 21:12:59 2018
### 

@<TRIPOS>MOLECULE
2pvl_ligand
   47    50     1     0     0
SMALL
GAST_HUCK


@<TRIPOS>ATOM
      1 N01        19.9040    9.4950   19.7460 N.2       1 P55        -0.1945
      2 C02        20.1960    9.7280   18.4440 C.2       1 P55         0.0189
      3 C03        21.1950    8.8240   18.0370 C.2       1 P55         0.1133
      4 C04        21.4780    8.0190   19.2080 C.2       1 P55         0.1902
      5 N05        20.6740    8.4740   20.2140 N.pl3     1 P55        -0.0769
      6 N06        22.3180    7.0010   19.4520 N.2       1 P55        -0.2494
      7 C07        22.3100    6.4970   20.6840 C.2       1 P55         0.1750
      8 N08        21.5420    6.9320   21.6780 N.2       1 P55        -0.2008
      9 C09        20.7160    7.9390   21.4220 C.2       1 P55         0.3219
     10 N10        19.9170    8.4610   22.3860 N.pl3     1 P55        -0.2037
     11 C11        20.0020    8.1390   23.7050 C.ar      1 P55         0.0748
     12 C12        20.1590    6.8170   24.1280 C.ar      1 P55        -0.0365
     13 C13        20.1270    6.4850   25.4800 C.ar      1 P55        -0.0707
     14 C14        19.9420    7.4890   26.4320 C.ar      1 P55        -0.0727
     15 C15        19.8490    8.8180   26.0200 C.ar      1 P55        -0.0707
     16 C16        19.8850    9.1460   24.6640 C.ar      1 P55        -0.0365
     17 N17        23.1660    5.4020   20.9610 N.pl3     1 P55        -0.2611
     18 C18        23.2550    4.8370   22.3190 C.3       1 P55         0.0770
     19 C19        22.5450    3.4810   22.4110 C.3       1 P55        -0.0101
     20 N20        22.9970    2.6210   21.3000 N.4       1 P55         0.2380
     21 C21        22.8320    3.1840   19.9500 C.3       1 P55        -0.0101
     22 C22        23.5200    4.5420   19.8170 C.3       1 P55         0.0770
     23 C23        22.4740    1.2450   21.3430 C.3       1 P55        -0.0346
     24 C24        20.9450    1.2080   21.2520 C.3       1 P55        -0.0245
     25 C25        21.8110    8.7640   16.7440 C.1       1 P55         0.0456
     26 N26        22.3100    8.8090   15.6980 N.1       1 P55        -0.3797
     27 H1         19.7343   10.4887   17.8162 H         1 P55         0.0733
     28 H2         19.2008    9.1443   22.1013 H         1 P55         0.2299
     29 H3         20.3083    6.0361   23.3911 H         1 P55         0.0543
     30 H4         20.2450    5.4534   25.7912 H         1 P55         0.0589
     31 H5         19.8711    7.2374   27.4840 H         1 P55         0.0525
     32 H6         19.7478    9.6037   26.7599 H         1 P55         0.0589
     33 H7         19.8221   10.1833   24.3556 H         1 P55         0.0543
     34 H8         22.7858    5.5349   23.0280 H         1 P55         0.0586
     35 H9         24.3147    4.7041   22.5822 H         1 P55         0.0586
     36 H10        21.4573    3.6297   22.3422 H         1 P55         0.0835
     37 H11        22.7897    3.0017   23.3704 H         1 P55         0.0835
     38 H12        23.9925    2.5368   21.4342 H         1 P55         0.2035
     39 H13        21.7586    3.3063   19.7433 H         1 P55         0.0835
     40 H14        23.2696    2.4893   19.2179 H         1 P55         0.0835
     41 H15        24.6102    4.3971   19.7941 H         1 P55         0.0586
     42 H16        23.1946    5.0251   18.8839 H         1 P55         0.0586
     43 H17        22.7847    0.7765   22.2885 H         1 P55         0.0812
     44 H18        22.8936    0.6792   20.4982 H         1 P55         0.0812
     45 H19        20.6007    0.1639   21.2878 H         1 P55         0.0281
     46 H20        20.6227    1.6681   20.3062 H         1 P55         0.0281
     47 H21        20.5138    1.7654   22.0966 H         1 P55         0.0281
@<TRIPOS>BOND
     1    1    2 2  
     2    1    5 1  
     3    2    3 1  
     4    3    4 2  
     5    3   25 1  
     6    4    5 1  
     7    4    6 1  
     8    5    9 1  
     9    6    7 2  
    10    7    8 1  
    11    7   17 1  
    12    8    9 2  
    13    9   10 1  
    14   10   11 1  
    15   11   12 ar 
    16   11   16 ar 
    17   12   13 ar 
    18   13   14 ar 
    19   14   15 ar 
    20   15   16 ar 
    21   17   18 1  
    22   17   22 1  
    23   18   19 1  
    24   19   20 1  
    25   20   21 1  
    26   20   23 1  
    27   21   22 1  
    28   23   24 1  
    29   25   26 3  
    30    2   27 1  
    31   10   28 1  
    32   12   29 1  
    33   13   30 1  
    34   14   31 1  
    35   15   32 1  
    36   16   33 1  
    37   18   34 1  
    38   18   35 1  
    39   19   36 1  
    40   19   37 1  
    41   20   38 1  
    42   21   39 1  
    43   21   40 1  
    44   22   41 1  
    45   22   42 1  
    46   23   43 1  
    47   23   44 1  
    48   24   45 1  
    49   24   46 1  
    50   24   47 1  
@<TRIPOS>SUBSTRUCTURE
     1 P55         1

