4b34_ligand
  -I-interpret- 

 16 17  0  0  0  0  0  0  0  0999 V2000
   18.5620    5.3810   -1.6920 C   0  0  0  0  0
   20.3380    8.1850   -3.0520 N   0  0  0  0  0
   18.2140    8.1340   -1.7700 S   0  0  0  0  0
   19.3440    4.3060   -2.0550 C   0  0  0  0  0
   19.3780   10.3080   -2.7020 N   0  0  0  0  0
   20.5100    4.5050   -2.7850 C   0  0  0  0  0
   20.8970    5.7900   -3.1440 C   0  0  0  0  0
   20.1130    6.8820   -2.7830 C   0  0  0  0  0
   18.9370    6.6520   -2.0490 C   0  0  0  0  0
   19.3920    8.9900   -2.5720 C   0  0  0  0  0
   17.6466    5.2220   -1.1220 H   0  0  0  0  0
   19.0474    3.2969   -1.7689 H   0  0  0  0  0
   20.1322   10.7792   -3.2015 H   0  0  0  0  0
   18.6130   10.8518   -2.3026 H   0  0  0  0  0
   21.1218    3.6512   -3.0763 H   0  0  0  0  0
   21.8162    5.9434   -3.7094 H   0  0  0  0  0
  1  4  4  0  0  0
  9  1  4  0  0  0
  2  8  4  0  0  0
 10  2  4  0  0  0
  3  9  4  0  0  0
  3 10  4  0  0  0
  4  6  4  0  0  0
 10  5  1  0  0  0
  6  7  4  0  0  0
  7  8  4  0  0  0
  8  9  4  0  0  0
  1 11  1  0  0  0
  4 12  1  0  0  0
  5 13  1  0  0  0
  5 14  1  0  0  0
  6 15  1  0  0  0
  7 16  1  0  0  0
M  END
$$$$
