### 
### Created by X-TOOL on Mon Sep 10 21:13:14 2018
### 

@<TRIPOS>MOLECULE
4b34_ligand
   16    17     1     0     0
SMALL
GAST_HUCK


@<TRIPOS>ATOM
      1 C1         18.5620    5.3810   -1.6920 C.ar      1 ABV        -0.0531
      2 N1         20.3380    8.1850   -3.0520 N.2       1 ABV        -0.3076
      3 S1         18.2140    8.1340   -1.7700 S.3       1 ABV         0.0284
      4 C2         19.3440    4.3060   -2.0550 C.ar      1 ABV        -0.0745
      5 N2         19.3780   10.3080   -2.7020 N.pl3     1 ABV        -0.2934
      6 C3         20.5100    4.5050   -2.7850 C.ar      1 ABV        -0.0756
      7 C4         20.8970    5.7900   -3.1440 C.ar      1 ABV        -0.0632
      8 C5         20.1130    6.8820   -2.7830 C.ar      1 ABV         0.0104
      9 C6         18.9370    6.6520   -2.0490 C.ar      1 ABV         0.0494
     10 C7         19.3920    8.9900   -2.5720 C.2       1 ABV         0.1827
     11 H1         17.6517    5.2229   -1.1251 H         1 ABV         0.0557
     12 H2         19.0490    3.3025   -1.7705 H         1 ABV         0.0534
     13 H3         20.1370   10.7834   -3.2107 H         1 ABV         0.1896
     14 H4         18.6081   10.8576   -2.2944 H         1 ABV         0.1896
     15 H5         21.1185    3.6559   -3.0747 H         1 ABV         0.0546
     16 H6         21.8111    5.9425   -3.7063 H         1 ABV         0.0536
@<TRIPOS>BOND
     1    1    4 ar 
     2    9    1 ar 
     3    2    8 1  
     4   10    2 2  
     5    3    9 1  
     6    3   10 1  
     7    4    6 ar 
     8   10    5 1  
     9    6    7 ar 
    10    7    8 ar 
    11    8    9 ar 
    12    1   11 1  
    13    4   12 1  
    14    5   13 1  
    15    5   14 1  
    16    6   15 1  
    17    7   16 1  
@<TRIPOS>SUBSTRUCTURE
     1 ABV         1

