3nhi_ligand
  -I-interpret- 

 59 58  0  0  0  0  0  0  0  0999 V2000
   -0.6050   -5.8570   22.7740 O   0  0  0  0  0
   -1.4870   -4.9750   22.6150 C   0  0  0  0  0
   -1.5320   -3.9300   23.3090 O   0  0  0  0  0
   -2.5300   -5.1860   21.5350 C   0  0  0  0  0
   -3.7070   -4.2230   21.7060 C   0  0  0  0  0
   -3.5220   -2.9580   20.8710 C   0  0  0  0  0
   -4.6810   -2.0080   21.0890 C   0  0  0  0  0
   -5.7670   -2.5060   20.4960 O   0  0  0  0  0
   -4.3550   -0.6360   20.5050 C   0  0  0  0  0
   -5.5560    0.2940   20.5670 C   0  0  0  0  0
   -6.1240    0.5090   19.1800 C   0  0  0  0  0
   -7.3970    1.2140   19.2750 C   0  0  0  0  0
   -8.0020    1.2610   18.0890 C   0  0  0  0  0
   -9.2700    1.9700   18.2410 C   0  0  0  0  0
  -10.1590    2.1170   17.2550 C   0  0  0  0  0
   -9.9510    1.5850   15.8560 C   0  0  0  0  0
   -9.3680    2.6990   15.0140 C   0  0  0  0  0
   -9.7440    2.9740   13.7630 C   0  0  0  0  0
  -10.7970    2.1920   13.0160 C   0  0  0  0  0
  -10.1080    1.2150   12.0760 C   0  0  0  0  0
   -9.9750   -0.1550   12.7260 C   0  0  0  0  0
   -9.7060   -1.2180   11.6740 C   0  0  0  0  0
   -9.4770   -2.5650   12.3200 C   0  0  0  0  0
   -0.7494   -6.5691   22.1466 H   0  0  0  0  0
   -2.9032   -6.2076   21.6068 H   0  0  0  0  0
   -2.0683   -5.0020   20.5649 H   0  0  0  0  0
   -3.7692   -3.9372   22.7560 H   0  0  0  0  0
   -4.6152   -4.7259   21.3738 H   0  0  0  0  0
   -3.4802   -3.2313   19.8166 H   0  0  0  0  0
   -2.5975   -2.4655   21.1724 H   0  0  0  0  0
   -4.8623   -1.8959   22.1580 H   0  0  0  0  0
   -5.9662   -3.3684   20.8678 H   0  0  0  0  0
   -4.0700   -0.7636   19.4607 H   0  0  0  0  0
   -3.5461   -0.1955   21.0878 H   0  0  0  0  0
   -5.2426    1.2542   20.9767 H   0  0  0  0  0
   -6.3216   -0.1542   21.2003 H   0  0  0  0  0
   -6.2805   -0.4568   18.6996 H   0  0  0  0  0
   -5.4249    1.1026   18.5909 H   0  0  0  0  0
   -7.2099    2.2327   19.6145 H   0  0  0  0  0
   -8.0407    0.6838   19.9769 H   0  0  0  0  0
   -7.6155    0.8407   17.1605 H   0  0  0  0  0
   -9.5038    2.4034   19.2134 H   0  0  0  0  0
  -10.1797    3.1964   17.1046 H   0  0  0  0  0
  -11.0138    1.5413   17.6099 H   0  0  0  0  0
  -10.8995    1.2516   15.4350 H   0  0  0  0  0
   -9.2724    0.7322   15.8744 H   0  0  0  0  0
   -8.5890    3.3183   15.4587 H   0  0  0  0  0
   -9.2642    3.8092   13.2529 H   0  0  0  0  0
  -11.4263    2.8736   12.4436 H   0  0  0  0  0
  -11.4220    1.6460   13.7227 H   0  0  0  0  0
   -9.1123    1.5927   11.8436 H   0  0  0  0  0
  -10.7051    1.1181   11.1693 H   0  0  0  0  0
  -10.9047   -0.3943   13.2422 H   0  0  0  0  0
   -9.1430   -0.1342   13.4299 H   0  0  0  0  0
   -8.8134   -0.9403   11.1134 H   0  0  0  0  0
  -10.5708   -1.2867   11.0141 H   0  0  0  0  0
   -8.6177   -2.5048   12.9879 H   0  0  0  0  0
  -10.3622   -2.8487   12.8893 H   0  0  0  0  0
   -9.2865   -3.3096   11.5470 H   0  0  0  0  0
  1  2  1  0  0  0
  2  3  2  0  0  0
  2  4  1  0  0  0
  4  5  1  0  0  0
  5  6  1  0  0  0
  6  7  1  0  0  0
  7  8  1  0  0  0
  7  9  1  0  0  0
  9 10  1  0  0  0
 10 11  1  0  0  0
 11 12  1  0  0  0
 12 13  1  0  0  0
 13 14  2  0  0  0
 14 15  1  0  0  0
 15 16  1  0  0  0
 16 17  1  0  0  0
 17 18  2  0  0  0
 18 19  1  0  0  0
 19 20  1  0  0  0
 20 21  1  0  0  0
 21 22  1  0  0  0
 22 23  1  0  0  0
  1 24  1  0  0  0
  4 25  1  0  0  0
  4 26  1  0  0  0
  5 27  1  0  0  0
  5 28  1  0  0  0
  6 29  1  0  0  0
  6 30  1  0  0  0
  7 31  1  0  0  0
  8 32  1  0  0  0
  9 33  1  0  0  0
  9 34  1  0  0  0
 10 35  1  0  0  0
 10 36  1  0  0  0
 11 37  1  0  0  0
 11 38  1  0  0  0
 12 39  1  0  0  0
 12 40  1  0  0  0
 13 41  1  0  0  0
 14 42  1  0  0  0
 15 43  1  0  0  0
 15 44  1  0  0  0
 16 45  1  0  0  0
 16 46  1  0  0  0
 17 47  1  0  0  0
 18 48  1  0  0  0
 19 49  1  0  0  0
 19 50  1  0  0  0
 20 51  1  0  0  0
 20 52  1  0  0  0
 21 53  1  0  0  0
 21 54  1  0  0  0
 22 55  1  0  0  0
 22 56  1  0  0  0
 23 57  1  0  0  0
 23 58  1  0  0  0
 23 59  1  0  0  0
M  END
$$$$
