### 
### Created by X-TOOL on Mon Sep 10 21:13:02 2018
### 

@<TRIPOS>MOLECULE
3nhi_ligand
   58    57     1     0     0
SMALL
GAST_HUCK


@<TRIPOS>ATOM
      1 O1         -0.6050   -5.8570   22.7740 O.co2     1 EAH        -0.5690
      2 C1         -1.4870   -4.9750   22.6150 C.2       1 EAH         0.0348
      3 O2         -1.5320   -3.9300   23.3090 O.co2     1 EAH        -0.5690
      4 C2         -2.5300   -5.1860   21.5350 C.3       1 EAH         0.0003
      5 C3         -3.7070   -4.2230   21.7060 C.3       1 EAH        -0.0391
      6 C4         -3.5220   -2.9580   20.8710 C.3       1 EAH        -0.0254
      7 C5         -4.6810   -2.0080   21.0890 C.3       1 EAH         0.0554
      8 O3         -5.7670   -2.5060   20.4960 O.3       1 EAH        -0.3918
      9 C6         -4.3550   -0.6360   20.5050 C.3       1 EAH        -0.0267
     10 C7         -5.5560    0.2940   20.5670 C.3       1 EAH        -0.0492
     11 C8         -6.1240    0.5090   19.1800 C.3       1 EAH        -0.0463
     12 C9         -7.3970    1.2140   19.2750 C.3       1 EAH        -0.0365
     13 C10        -8.0020    1.2610   18.0890 C.2       1 EAH        -0.0985
     14 C11        -9.2700    1.9700   18.2410 C.2       1 EAH        -0.0970
     15 C12       -10.1590    2.1170   17.2550 C.3       1 EAH        -0.0298
     16 C13        -9.9510    1.5850   15.8560 C.3       1 EAH        -0.0298
     17 C14        -9.3680    2.6990   15.0140 C.2       1 EAH        -0.0970
     18 C15        -9.7440    2.9740   13.7630 C.2       1 EAH        -0.0985
     19 C16       -10.7970    2.1920   13.0160 C.3       1 EAH        -0.0365
     20 C17       -10.1080    1.2150   12.0760 C.3       1 EAH        -0.0464
     21 C18        -9.9750   -0.1550   12.7260 C.3       1 EAH        -0.0518
     22 C19        -9.7060   -1.2180   11.6740 C.3       1 EAH        -0.0558
     23 C20        -9.4770   -2.5650   12.3200 C.3       1 EAH        -0.0653
     24 H1         -2.9013   -6.2199   21.5919 H         1 EAH         0.0430
     25 H2         -2.0675   -5.0161   20.5515 H         1 EAH         0.0430
     26 H3         -3.7879   -3.9424   22.7665 H         1 EAH         0.0284
     27 H4         -4.6311   -4.7284   21.3889 H         1 EAH         0.0284
     28 H5         -3.4719   -3.2304   19.8064 H         1 EAH         0.0291
     29 H6         -2.5860   -2.4618   21.1671 H         1 EAH         0.0291
     30 H7         -4.8690   -1.9051   22.1679 H         1 EAH         0.0593
     31 H8         -5.9714   -3.3538   20.8726 H         1 EAH         0.2098
     32 H9         -4.0505   -0.7573   19.4550 H         1 EAH         0.0290
     33 H10        -3.5280   -0.1908   21.0776 H         1 EAH         0.0290
     34 H11        -5.2444    1.2622   20.9859 H         1 EAH         0.0268
     35 H12        -6.3283   -0.1525   21.2105 H         1 EAH         0.0268
     36 H13        -6.2808   -0.4652   18.6938 H         1 EAH         0.0285
     37 H14        -5.4184    1.1068   18.5843 H         1 EAH         0.0285
     38 H15        -7.2155    2.2399   19.6280 H         1 EAH         0.0388
     39 H16        -8.0471    0.6895   19.9907 H         1 EAH         0.0388
     40 H17        -7.6158    0.8411   17.1614 H         1 EAH         0.0450
     41 H18        -9.5036    2.4030   19.2125 H         1 EAH         0.0451
     42 H19       -10.3085    3.2012   17.1447 H         1 EAH         0.0408
     43 H20       -11.0885    1.6536   17.6172 H         1 EAH         0.0408
     44 H21       -10.9134    1.2617   15.4326 H         1 EAH         0.0408
     45 H22        -9.2561    0.7326   15.8802 H         1 EAH         0.0408
     46 H23        -8.5897    3.3177   15.4583 H         1 EAH         0.0451
     47 H24        -9.2646    3.8085   13.2533 H         1 EAH         0.0450
     48 H25       -11.4270    2.8817   12.4352 H         1 EAH         0.0388
     49 H26       -11.4227    1.6379   13.7312 H         1 EAH         0.0388
     50 H27        -9.1061    1.5965   11.8298 H         1 EAH         0.0285
     51 H28       -10.7013    1.1212   11.1545 H         1 EAH         0.0285
     52 H29       -10.9085   -0.3971   13.2550 H         1 EAH         0.0267
     53 H30        -9.1413   -0.1362   13.4433 H         1 EAH         0.0267
     54 H31        -8.8119   -0.9375   11.0979 H         1 EAH         0.0263
     55 H32       -10.5716   -1.2843   10.9985 H         1 EAH         0.0263
     56 H33        -9.2847   -3.3173   11.5409 H         1 EAH         0.0230
     57 H34       -10.3697   -2.8525   12.8949 H         1 EAH         0.0230
     58 H35        -8.6100   -2.5056   12.9943 H         1 EAH         0.0230
@<TRIPOS>BOND
     1    1    2 ar 
     2    2    3 ar 
     3    2    4 1  
     4    4    5 1  
     5    5    6 1  
     6    6    7 1  
     7    7    8 1  
     8    7    9 1  
     9    9   10 1  
    10   10   11 1  
    11   11   12 1  
    12   12   13 1  
    13   13   14 2  
    14   14   15 1  
    15   15   16 1  
    16   16   17 1  
    17   17   18 2  
    18   18   19 1  
    19   19   20 1  
    20   20   21 1  
    21   21   22 1  
    22   22   23 1  
    23    4   24 1  
    24    4   25 1  
    25    5   26 1  
    26    5   27 1  
    27    6   28 1  
    28    6   29 1  
    29    7   30 1  
    30    8   31 1  
    31    9   32 1  
    32    9   33 1  
    33   10   34 1  
    34   10   35 1  
    35   11   36 1  
    36   11   37 1  
    37   12   38 1  
    38   12   39 1  
    39   13   40 1  
    40   14   41 1  
    41   15   42 1  
    42   15   43 1  
    43   16   44 1  
    44   16   45 1  
    45   17   46 1  
    46   18   47 1  
    47   19   48 1  
    48   19   49 1  
    49   20   50 1  
    50   20   51 1  
    51   21   52 1  
    52   21   53 1  
    53   22   54 1  
    54   22   55 1  
    55   23   56 1  
    56   23   57 1  
    57   23   58 1  
@<TRIPOS>SUBSTRUCTURE
     1 EAH         1

