3kmy_ligand
  -I-interpret- 

 29 30  0  0  0  0  0  0  0  0999 V2000
   21.6660   12.2540   25.8860 C   0  0  0  0  0
   22.1020   10.9870   25.6850 N   0  0  0  0  0
   20.8610   13.8560   17.6940 Cl  0  0  0  0  0
   21.9190   10.3290   24.5040 C   0  0  0  0  0
   22.3720    9.0560   24.3830 N   0  0  0  0  0
   21.2630   10.9500   23.4220 C   0  0  0  0  0
   20.7960   12.2760   23.6080 C   0  0  0  0  0
   20.9930   12.9440   24.8450 C   0  0  0  0  0
   21.0580   10.2430   22.0870 C   0  0  0  0  0
   22.3730   10.1980   21.2380 C   0  0  0  0  0
   22.6360   11.5120   20.5070 C   0  0  0  0  0
   23.8040   12.2640   20.8240 C   0  0  0  0  0
   24.0580   13.5040   20.1700 C   0  0  0  0  0
   23.1440   13.9950   19.1950 C   0  0  0  0  0
   21.9760   13.2460   18.8720 C   0  0  0  0  0
   21.7220   12.0020   19.5250 C   0  0  0  0  0
   21.8321   12.7425   26.8462 H   0  0  0  0  0
   22.8414    8.6049   25.1682 H   0  0  0  0  0
   22.2432    8.5500   23.5068 H   0  0  0  0  0
   20.2813   12.7867   22.7941 H   0  0  0  0  0
   20.6355   13.9632   24.9916 H   0  0  0  0  0
   20.3064   10.7941   21.5217 H   0  0  0  0  0
   20.7477    9.2178   22.2887 H   0  0  0  0  0
   22.2666    9.4111   20.4913 H   0  0  0  0  0
   23.2069   10.0153   21.9157 H   0  0  0  0  0
   24.5055   11.8893   21.5694 H   0  0  0  0  0
   24.9521   14.0768   20.4161 H   0  0  0  0  0
   23.3380   14.9442   18.6956 H   0  0  0  0  0
   20.8309   11.4265   19.2742 H   0  0  0  0  0
  2  1  4  0  0  0
  8  1  4  0  0  0
  4  2  4  0  0  0
 15  3  1  0  0  0
  4  5  1  0  0  0
  6  4  4  0  0  0
  6  7  4  0  0  0
  9  6  1  0  0  0
  7  8  4  0  0  0
 10  9  1  0  0  0
 11 10  1  0  0  0
 12 11  4  0  0  0
 11 16  4  0  0  0
 13 12  4  0  0  0
 14 13  4  0  0  0
 14 15  4  0  0  0
 15 16  4  0  0  0
  1 17  1  0  0  0
  5 18  1  0  0  0
  5 19  1  0  0  0
  7 20  1  0  0  0
  8 21  1  0  0  0
  9 22  1  0  0  0
  9 23  1  0  0  0
 10 24  1  0  0  0
 10 25  1  0  0  0
 12 26  1  0  0  0
 13 27  1  0  0  0
 14 28  1  0  0  0
 16 29  1  0  0  0
M  END
$$$$
