### 
### Created by X-TOOL on Mon Sep 10 21:13:03 2018
### 

@<TRIPOS>MOLECULE
3kmy_ligand
   29    30     1     0     0
SMALL
GAST_HUCK


@<TRIPOS>ATOM
      1 C1         21.6660   12.2540   25.8860 C.ar      1 D8Y        -0.0120
      2 N1         22.1020   10.9870   25.6850 N.ar      1 D8Y        -0.2937
      3 CL1        20.8610   13.8560   17.6940 Cl        1 D8Y        -0.0725
      4 C2         21.9190   10.3290   24.5040 C.ar      1 D8Y         0.1115
      5 N2         22.3720    9.0560   24.3830 N.pl3     1 D8Y        -0.3249
      6 C3         21.2630   10.9500   23.4220 C.ar      1 D8Y         0.0053
      7 C4         20.7960   12.2760   23.6080 C.ar      1 D8Y        -0.0524
      8 C5         20.9930   12.9440   24.8450 C.ar      1 D8Y        -0.0554
      9 C6         21.0580   10.2430   22.0870 C.3       1 D8Y        -0.0066
     10 C7         22.3730   10.1980   21.2380 C.3       1 D8Y        -0.0101
     11 C8         22.6360   11.5120   20.5070 C.ar      1 D8Y        -0.0407
     12 C9         23.8040   12.2640   20.8240 C.ar      1 D8Y        -0.0601
     13 C10        24.0580   13.5040   20.1700 C.ar      1 D8Y        -0.0680
     14 C11        23.1440   13.9950   19.1950 C.ar      1 D8Y        -0.0548
     15 C12        21.9760   13.2460   18.8720 C.ar      1 D8Y         0.0338
     16 C13        21.7220   12.0020   19.5250 C.ar      1 D8Y        -0.0463
     17 H1         21.8312   12.7398   26.8409 H         1 D8Y         0.0717
     18 H2         22.2420    8.5450   23.4982 H         1 D8Y         0.1746
     19 H3         22.8460    8.6005   25.1759 H         1 D8Y         0.1746
     20 H4         20.2842   12.7839   22.7986 H         1 D8Y         0.0631
     21 H5         20.6375   13.9576   24.9908 H         1 D8Y         0.0578
     22 H6         20.2853   10.7790   21.5164 H         1 D8Y         0.0437
     23 H7         20.7238    9.2127   22.2786 H         1 D8Y         0.0437
     24 H8         22.2871    9.3912   20.4953 H         1 D8Y         0.0447
     25 H9         23.2200    9.9906   21.9085 H         1 D8Y         0.0447
     26 H10        24.5017   11.8914   21.5653 H         1 D8Y         0.0558
     27 H11        24.9472   14.0737   20.4147 H         1 D8Y         0.0599
     28 H12        23.3369   14.9390   18.6983 H         1 D8Y         0.0565
     29 H13        20.8358   11.4297   19.2756 H         1 D8Y         0.0562
@<TRIPOS>BOND
     1    2    1 ar 
     2    8    1 ar 
     3    4    2 ar 
     4   15    3 1  
     5    4    5 1  
     6    6    4 ar 
     7    6    7 ar 
     8    9    6 1  
     9    7    8 ar 
    10   10    9 1  
    11   11   10 1  
    12   12   11 ar 
    13   11   16 ar 
    14   13   12 ar 
    15   14   13 ar 
    16   14   15 ar 
    17   15   16 ar 
    18    1   17 1  
    19    5   18 1  
    20    5   19 1  
    21    7   20 1  
    22    8   21 1  
    23    9   22 1  
    24    9   23 1  
    25   10   24 1  
    26   10   25 1  
    27   12   26 1  
    28   13   27 1  
    29   14   28 1  
    30   16   29 1  
@<TRIPOS>SUBSTRUCTURE
     1 D8Y         1

