### 
### Created by X-TOOL on Mon Sep 10 21:13:19 2018
### 

@<TRIPOS>MOLECULE
4pb2_ligand
   29    30     1     0     0
SMALL
GAST_HUCK


@<TRIPOS>ATOM
      1 F5         49.3120  -22.1150   -5.4020 F         1 5UD        -0.2165
      2 C5         49.7840  -21.6070   -6.5180 C.2       1 5UD         0.1931
      3 C4         49.1780  -21.9580   -7.7730 C.2       1 5UD         0.2212
      4 O4         48.2220  -22.7290   -7.8050 O.2       1 5UD        -0.4071
      5 N3         49.6850  -21.4160   -8.9370 N.am      1 5UD        -0.1842
      6 C2         50.7510  -20.5560   -8.8810 C.2       1 5UD         0.3295
      7 O2         51.2000  -20.0770   -9.9070 O.2       1 5UD        -0.3830
      8 C6         50.8260  -20.7650   -6.4950 C.2       1 5UD         0.0880
      9 N1         51.3110  -20.2380   -7.6780 N.am      1 5UD        -0.1635
     10 C1'        52.4700  -19.3000   -7.6430 C.3       1 5UD         0.2035
     11 C2'        52.0460  -17.8390   -7.7350 C.3       1 5UD         0.1382
     12 O2'        52.9790  -17.1330   -8.5280 O.3       1 5UD        -0.3837
     13 C3'        52.1290  -17.3580   -6.3000 C.3       1 5UD         0.1145
     14 O3'        52.4150  -15.9660   -6.2630 O.3       1 5UD        -0.3864
     15 C4'        53.3090  -18.1610   -5.7810 C.3       1 5UD         0.1135
     16 O4'        53.2130  -19.4510   -6.4420 O.3       1 5UD        -0.3370
     17 C5'        53.1770  -18.3620   -4.2840 C.3       1 5UD         0.0730
     18 O5'        51.9310  -18.8510   -3.8010 O.3       1 5UD        -0.3924
     19 H          49.2756  -21.6502   -9.8188 H         1 5UD         0.2260
     20 H          51.2898  -20.4963   -5.5471 H         1 5UD         0.1107
     21 H          53.1209  -19.5327   -8.4987 H         1 5UD         0.0991
     22 H          51.0303  -17.7317   -8.1435 H         1 5UD         0.0676
     23 H          52.7172  -16.2217   -8.5871 H         1 5UD         0.2101
     24 H          51.2073  -17.5717   -5.7389 H         1 5UD         0.0648
     25 H          52.4642  -15.6779   -5.3590 H         1 5UD         0.2100
     26 H          54.2607  -17.6624   -6.0167 H         1 5UD         0.0647
     27 H          53.3603  -17.3903   -3.8022 H         1 5UD         0.0584
     28 H          53.9546  -19.0765   -3.9762 H         1 5UD         0.0584
     29 H          51.2403  -18.2433   -4.0379 H         1 5UD         0.2095
@<TRIPOS>BOND
     1    1    2 1  
     2    2    3 1  
     3    2    8 2  
     4    3    4 2  
     5    3    5 am 
     6    5    6 am 
     7    6    7 2  
     8    6    9 am 
     9    8    9 1  
    10    9   10 1  
    11   10   11 1  
    12   10   16 1  
    13   11   12 1  
    14   11   13 1  
    15   13   14 1  
    16   13   15 1  
    17   15   16 1  
    18   15   17 1  
    19   17   18 1  
    20    5   19 1  
    21    8   20 1  
    22   10   21 1  
    23   11   22 1  
    24   12   23 1  
    25   13   24 1  
    26   14   25 1  
    27   15   26 1  
    28   17   27 1  
    29   17   28 1  
    30   18   29 1  
@<TRIPOS>SUBSTRUCTURE
     1 5UD         1

