4pb2_ligand
  -I-interpret- 

 29 30  0  0  0  0  0  0  0  0999 V2000
   49.3120  -22.1150   -5.4020 F   0  0  0  0  0
   49.7840  -21.6070   -6.5180 C   0  0  0  0  0
   49.1780  -21.9580   -7.7730 C   0  0  0  0  0
   48.2220  -22.7290   -7.8050 O   0  0  0  0  0
   49.6850  -21.4160   -8.9370 N   0  0  0  0  0
   50.7510  -20.5560   -8.8810 C   0  0  0  0  0
   51.2000  -20.0770   -9.9070 O   0  0  0  0  0
   50.8260  -20.7650   -6.4950 C   0  0  0  0  0
   51.3110  -20.2380   -7.6780 N   0  0  0  0  0
   52.4700  -19.3000   -7.6430 C   0  0  0  0  0
   52.0460  -17.8390   -7.7350 C   0  0  0  0  0
   52.9790  -17.1330   -8.5280 O   0  0  0  0  0
   52.1290  -17.3580   -6.3000 C   0  0  0  0  0
   52.4150  -15.9660   -6.2630 O   0  0  0  0  0
   53.3090  -18.1610   -5.7810 C   0  0  0  0  0
   53.2130  -19.4510   -6.4420 O   0  0  0  0  0
   53.1770  -18.3620   -4.2840 C   0  0  0  0  0
   51.9310  -18.8510   -3.8010 O   0  0  0  0  0
   49.2675  -21.6548   -9.8365 H   0  0  0  0  0
   51.2903  -20.4961   -5.5462 H   0  0  0  0  0
   53.0770  -19.5548   -8.5118 H   0  0  0  0  0
   51.0600  -17.6982   -8.1779 H   0  0  0  0  0
   52.7144  -16.2121   -8.5878 H   0  0  0  0  0
   51.2123  -17.4902   -5.7252 H   0  0  0  0  0
   52.4647  -15.6749   -5.3496 H   0  0  0  0  0
   54.2571  -17.6596   -5.9753 H   0  0  0  0  0
   53.2990  -17.3737   -3.8408 H   0  0  0  0  0
   53.9146  -19.1202   -4.0210 H   0  0  0  0  0
   51.9704  -18.9357   -2.8456 H   0  0  0  0  0
  1  2  1  0  0  0
  2  3  1  0  0  0
  2  8  2  0  0  0
  3  4  2  0  0  0
  3  5  1  0  0  0
  5  6  1  0  0  0
  6  7  2  0  0  0
  6  9  1  0  0  0
  8  9  1  0  0  0
  9 10  1  0  0  0
 10 11  1  0  0  0
 10 16  1  0  0  0
 11 12  1  0  0  0
 11 13  1  0  0  0
 13 14  1  0  0  0
 13 15  1  0  0  0
 15 16  1  0  0  0
 15 17  1  0  0  0
 17 18  1  0  0  0
  5 19  1  0  0  0
  8 20  1  0  0  0
 10 21  1  0  0  0
 11 22  1  0  0  0
 12 23  1  0  0  0
 13 24  1  0  0  0
 14 25  1  0  0  0
 15 26  1  0  0  0
 17 27  1  0  0  0
 17 28  1  0  0  0
 18 29  1  0  0  0
M  END
$$$$
