6oe1_ligand
  -I-interpret- 

 46 48  0  0  0  0  0  0  0  0999 V2000
    0.1680    4.2230   84.5640 C   0  0  0  0  0
   -1.9730    5.3490   84.3670 C   0  0  0  0  0
   -0.4620    3.2270   85.2730 C   0  0  0  0  0
   -2.6120    4.3410   85.1270 C   0  0  0  0  0
   -0.6040    5.2560   84.0910 C   0  0  0  0  0
   -1.8110    3.2720   85.5940 C   0  0  0  0  0
   -0.3650    9.4760   80.4880 C   0  0  0  0  0
    0.7410   10.5490   82.1300 C   0  0  0  0  0
   -0.3250    7.3030   82.8590 C   0  0  0  0  0
   -2.0970   13.0900   78.9700 C   0  0  0  0  0
   -2.5960   12.5700   80.3230 C   0  0  0  0  0
   -0.5700   12.9000   78.7820 C   0  0  0  0  0
   -2.2520   11.0910   80.5050 C   0  0  0  0  0
   -0.2690   11.4070   78.8960 C   0  0  0  0  0
   -0.7380   10.9200   80.2960 C   0  0  0  0  0
    0.8650    8.0090   82.0930 C   0  0  0  0  0
    0.0840   11.4410   81.3730 N   0  0  0  0  0
    0.4420    9.3320   81.5800 N   0  0  0  0  0
   -2.0700    0.5520   85.9390 N   0  0  0  0  0
    0.2120    6.1960   83.3580 N   0  0  0  0  0
   -0.7890    8.5970   79.7600 O   0  0  0  0  0
    1.4390   10.7390   83.1150 O   0  0  0  0  0
   -1.4870    7.6800   82.8520 O   0  0  0  0  0
   -2.0140    2.1320   87.8860 O   0  0  0  0  0
   -3.9830    2.1140   86.4030 O   0  0  0  0  0
   -2.5600    1.9750   86.5490 S   0  0  0  0  0
    1.2426    4.1937   84.3837 H   0  0  0  0  0
   -2.5471    6.1982   83.9963 H   0  0  0  0  0
    0.1232    2.3661   85.5963 H   0  0  0  0  0
   -3.6792    4.3861   85.3442 H   0  0  0  0  0
   -2.3096   14.1580   78.9230 H   0  0  0  0  0
   -2.6033   12.5253   78.1872 H   0  0  0  0  0
   -3.6793   12.6836   80.3624 H   0  0  0  0  0
   -2.1126   13.1408   81.1159 H   0  0  0  0  0
   -0.0225   13.4560   79.5431 H   0  0  0  0  0
   -0.2586   13.2759   77.8074 H   0  0  0  0  0
   -2.8004   10.4872   79.7820 H   0  0  0  0  0
   -2.5314   10.7619   81.5058 H   0  0  0  0  0
    0.8002   11.2311   78.7778 H   0  0  0  0  0
   -0.7946   10.8589   78.1141 H   0  0  0  0  0
    1.1646    7.3833   81.2522 H   0  0  0  0  0
    1.6970    8.1473   82.7835 H   0  0  0  0  0
    0.1590   12.4432   81.5470 H   0  0  0  0  0
   -1.4726   -0.0617   86.4929 H   0  0  0  0  0
   -2.3597    0.2719   85.0020 H   0  0  0  0  0
    1.2055    6.0084   83.2231 H   0  0  0  0  0
  1  3  4  0  0  0
  5  1  4  0  0  0
  2  4  4  0  0  0
  5  2  4  0  0  0
  3  6  4  0  0  0
  4  6  4  0  0  0
 20  5  1  0  0  0
  6 26  1  0  0  0
  7 15  1  0  0  0
 18  7  1  0  0  0
  7 21  2  0  0  0
  8 17  1  0  0  0
 18  8  1  0  0  0
  8 22  2  0  0  0
 16  9  1  0  0  0
  9 20  1  0  0  0
  9 23  2  0  0  0
 11 10  1  0  0  0
 12 10  1  0  0  0
 13 11  1  0  0  0
 14 12  1  0  0  0
 15 13  1  0  0  0
 15 14  1  0  0  0
 17 15  1  0  0  0
 16 18  1  0  0  0
 26 19  1  0  0  0
 26 24  2  0  0  0
 26 25  2  0  0  0
  1 27  1  0  0  0
  2 28  1  0  0  0
  3 29  1  0  0  0
  4 30  1  0  0  0
 10 31  1  0  0  0
 10 32  1  0  0  0
 11 33  1  0  0  0
 11 34  1  0  0  0
 12 35  1  0  0  0
 12 36  1  0  0  0
 13 37  1  0  0  0
 13 38  1  0  0  0
 14 39  1  0  0  0
 14 40  1  0  0  0
 16 41  1  0  0  0
 16 42  1  0  0  0
 17 43  1  0  0  0
 19 44  1  0  0  0
 19 45  1  0  0  0
 20 46  1  0  0  0
M  END
$$$$
