### 
### Created by X-TOOL on Mon Aug  2 16:15:40 2021
### 

@<TRIPOS>MOLECULE
6oe1_ligand
   46    48     1     0     0
SMALL
GAST_HUCK


@<TRIPOS>ATOM
      1 C15         0.1680    4.2230   84.5640 C.ar      1 M8V        -0.0394
      2 C23        -1.9730    5.3490   84.3670 C.ar      1 M8V        -0.0394
      3 C16        -0.4620    3.2270   85.2730 C.ar      1 M8V        -0.0490
      4 C22        -2.6120    4.3410   85.1270 C.ar      1 M8V        -0.0490
      5 C14        -0.6040    5.2560   84.0910 C.ar      1 M8V         0.0664
      6 C17        -1.8110    3.2720   85.5940 C.ar      1 M8V         0.0924
      7 C2         -0.3650    9.4760   80.4880 C.2       1 M8V         0.2572
      8 C25         0.7410   10.5490   82.1300 C.2       1 M8V         0.2921
      9 C12        -0.3250    7.3030   82.8590 C.2       1 M8V         0.2311
     10 C7         -2.0970   13.0900   78.9700 C.3       1 M8V        -0.0532
     11 C6         -2.5960   12.5700   80.3230 C.3       1 M8V        -0.0516
     12 C8         -0.5700   12.9000   78.7820 C.3       1 M8V        -0.0516
     13 C5         -2.2520   11.0910   80.5050 C.3       1 M8V        -0.0197
     14 C9         -0.2690   11.4070   78.8960 C.3       1 M8V        -0.0197
     15 C3         -0.7380   10.9200   80.2960 C.3       1 M8V         0.1389
     16 C11         0.8650    8.0090   82.0930 C.3       1 M8V         0.1535
     17 N4          0.0840   11.4410   81.3730 N.am      1 M8V        -0.2566
     18 N10         0.4420    9.3320   81.5800 N.am      1 M8V        -0.1488
     19 N20        -2.0700    0.5520   85.9390 N.am      1 M8V        -0.2626
     20 N13         0.2120    6.1960   83.3580 N.am      1 M8V        -0.2319
     21 O1         -0.7890    8.5970   79.7600 O.2       1 M8V        -0.3310
     22 O26         1.4390   10.7390   83.1150 O.2       1 M8V        -0.3909
     23 O24        -1.4870    7.6800   82.8520 O.2       1 M8V        -0.3822
     24 O19        -2.0140    2.1320   87.8860 O.2       1 M8V        -0.1524
     25 O21        -3.9830    2.1140   86.4030 O.2       1 M8V        -0.1524
     26 S18        -2.5600    1.9750   86.5490 S.o2      1 M8V         0.0591
     27 H1          1.2367    4.1938   84.3847 H         1 M8V         0.0503
     28 H2         -2.5439    6.1935   83.9984 H         1 M8V         0.0503
     29 H3          0.1199    2.3708   85.5945 H         1 M8V         0.0596
     30 H4         -3.6733    4.3859   85.3430 H         1 M8V         0.0596
     31 H5         -2.3296   14.1627   78.8978 H         1 M8V         0.0265
     32 H6         -2.6203   12.5466   78.1695 H         1 M8V         0.0265
     33 H7         -3.6877   12.6940   80.3751 H         1 M8V         0.0265
     34 H8         -2.1221   13.1508   81.1281 H         1 M8V         0.0265
     35 H9         -0.0251   13.4523   79.5618 H         1 M8V         0.0265
     36 H10        -0.2660   13.2686   77.7912 H         1 M8V         0.0265
     37 H11        -2.8002   10.4876   79.7665 H         1 M8V         0.0277
     38 H12        -2.5266   10.7670   81.5197 H         1 M8V         0.0277
     39 H13         0.8120   11.2360   78.7856 H         1 M8V         0.0277
     40 H14        -0.8092   10.8576   78.1109 H         1 M8V         0.0277
     41 H15         1.1772    7.3768   81.2487 H         1 M8V         0.0825
     42 H16         1.7108    8.1425   82.7835 H         1 M8V         0.0825
     43 H17         0.1576   12.4236   81.5436 H         1 M8V         0.1840
     44 H18        -2.3887   -0.3034   86.3473 H         1 M8V         0.1633
     45 H19        -1.4496    0.5311   85.1550 H         1 M8V         0.1633
     46 H20         1.1860    6.0121   83.2258 H         1 M8V         0.2257
@<TRIPOS>BOND
     1    1    3 ar 
     2    5    1 ar 
     3    2    4 ar 
     4    5    2 ar 
     5    3    6 ar 
     6    4    6 ar 
     7   20    5 1  
     8    6   26 1  
     9    7   15 1  
    10   18    7 am 
    11    7   21 2  
    12    8   17 am 
    13   18    8 am 
    14    8   22 2  
    15   16    9 1  
    16    9   20 am 
    17    9   23 2  
    18   11   10 1  
    19   12   10 1  
    20   13   11 1  
    21   14   12 1  
    22   15   13 1  
    23   15   14 1  
    24   17   15 1  
    25   16   18 1  
    26   26   19 am 
    27   26   24 2  
    28   26   25 2  
    29    1   27 1  
    30    2   28 1  
    31    3   29 1  
    32    4   30 1  
    33   10   31 1  
    34   10   32 1  
    35   11   33 1  
    36   11   34 1  
    37   12   35 1  
    38   12   36 1  
    39   13   37 1  
    40   13   38 1  
    41   14   39 1  
    42   14   40 1  
    43   16   41 1  
    44   16   42 1  
    45   17   43 1  
    46   19   44 1  
    47   19   45 1  
    48   20   46 1  
@<TRIPOS>SUBSTRUCTURE
     1 M8V         1

