1k1j_ligand
  -I-interpret- 

 67 70  0  0  0  0  0  0  0  0999 V2000
   -3.0350    5.6090   20.2470 C   0  0  0  0  0
   -3.6800    6.8610   20.1780 C   0  0  0  0  0
   -1.6740    5.5160   19.8930 C   0  0  0  0  0
   -0.9650    6.6510   19.4760 C   0  0  0  0  0
   -1.6110    7.8990   19.4040 C   0  0  0  0  0
   -2.9750    8.0140   19.7580 C   0  0  0  0  0
   -3.6690    9.3600   19.6700 C   0  0  0  0  0
   -2.9760   10.4020   19.2870 N   0  0  0  0  0
   -4.9510    9.4660   19.9690 N   0  0  0  0  0
   -3.8050    4.3610   20.7070 C   0  0  0  0  0
   -3.7930    4.1530   22.2540 C   0  0  0  0  0
   -2.4690    4.5140   22.9040 C   0  0  0  0  0
   -2.4170    5.6590   23.3450 O   0  0  0  0  0
   -1.4140    3.6780   23.0210 N   0  0  0  0  0
   -1.5090    2.3460   22.4450 C   0  0  0  0  0
   -1.0240    1.3160   23.4920 C   0  0  0  0  0
    0.3360    3.1580   24.6370 C   0  0  0  0  0
   -0.1640    4.1730   23.5710 C   0  0  0  0  0
    0.3750    1.7080   24.0550 C   0  0  0  0  0
    0.7960    0.8060   25.0540 C   0  0  0  0  0
    0.1850   -0.1870   25.4370 O   0  0  0  0  0
    1.9990    1.1680   25.5360 O   0  0  0  0  0
    2.1760    0.9340   26.9510 C   0  0  0  0  0
   -4.8630    4.9280   22.8860 N   0  0  0  0  0
   -5.7780    4.2560   24.1930 S   0  0  0  0  0
   -6.7940    5.2050   24.5670 O   0  0  0  0  0
   -6.1130    2.9050   23.9020 O   0  0  0  0  0
   -4.5700    4.2890   25.4220 C   0  0  0  0  0
   -4.2840    5.5260   26.0170 C   0  0  0  0  0
   -3.3060    5.6250   27.0190 C   0  0  0  0  0
   -2.8900    3.2070   26.8370 C   0  0  0  0  0
   -2.6000    4.4590   27.4390 C   0  0  0  0  0
   -3.8950    3.1320   25.8170 C   0  0  0  0  0
   -1.6050    4.5230   28.4600 C   0  0  0  0  0
   -0.9040    3.3530   28.8800 C   0  0  0  0  0
   -1.2080    2.1070   28.2660 C   0  0  0  0  0
   -2.1910    2.0370   27.2620 C   0  0  0  0  0
   -4.7322    6.9416   20.4509 H   0  0  0  0  0
   -1.1678    4.5520   19.9440 H   0  0  0  0  0
    0.0880    6.5668   19.2072 H   0  0  0  0  0
   -1.0586    8.7790   19.0746 H   0  0  0  0  0
   -3.4252   11.3150   19.2154 H   0  0  0  0  0
   -5.4169   10.3710   19.9032 H   0  0  0  0  0
   -5.4752    8.6429   20.2658 H   0  0  0  0  0
   -3.3205    3.4943   20.2573 H   0  0  0  0  0
   -4.8439    4.4878   20.4027 H   0  0  0  0  0
   -3.9514    3.0859   22.4098 H   0  0  0  0  0
   -0.8887    2.2846   21.5508 H   0  0  0  0  0
   -2.5423    2.1349   22.1696 H   0  0  0  0  0
   -0.9470    0.3401   23.0127 H   0  0  0  0  0
   -1.7379    1.2918   24.3153 H   0  0  0  0  0
    1.3438    3.4395   24.9422 H   0  0  0  0  0
   -0.3484    3.1761   25.4851 H   0  0  0  0  0
   -0.3178    5.1503   24.0284 H   0  0  0  0  0
    0.5772    4.2788   22.7788 H   0  0  0  0  0
    1.0889    1.6662   23.2323 H   0  0  0  0  0
    1.4288    1.4995   27.5077 H   0  0  0  0  0
    2.0585   -0.1294   27.1596 H   0  0  0  0  0
    3.1738    1.2560   27.2492 H   0  0  0  0  0
   -5.0705    5.8699   22.5539 H   0  0  0  0  0
   -4.8251    6.4172   25.6991 H   0  0  0  0  0
   -3.0866    6.5904   27.4749 H   0  0  0  0  0
   -4.1313    2.1752   25.3515 H   0  0  0  0  0
   -1.3767    5.4812   28.9267 H   0  0  0  0  0
   -0.1459    3.4137   29.6608 H   0  0  0  0  0
   -0.6788    1.2051   28.5736 H   0  0  0  0  0
   -2.4221    1.0761   26.8022 H   0  0  0  0  0
  1 10  1  0  0  0
  1  3  4  0  0  0
  1  2  4  0  0  0
  2  6  4  0  0  0
  6  7  1  0  0  0
  6  5  4  0  0  0
  5  4  4  0  0  0
  4  3  4  0  0  0
  7  9  1  0  0  0
  7  8  2  0  0  0
 10 11  1  0  0  0
 11 24  1  0  0  0
 11 12  1  0  0  0
 12 14  1  0  0  0
 12 13  2  0  0  0
 14 18  1  0  0  0
 14 15  1  0  0  0
 15 16  1  0  0  0
 16 19  1  0  0  0
 19 17  1  0  0  0
 19 20  1  0  0  0
 20 22  1  0  0  0
 20 21  2  0  0  0
 22 23  1  0  0  0
 17 18  1  0  0  0
 24 25  1  0  0  0
 25 28  1  0  0  0
 25 27  2  0  0  0
 25 26  2  0  0  0
 28 33  4  0  0  0
 28 29  4  0  0  0
 29 30  4  0  0  0
 30 32  4  0  0  0
 32 31  4  0  0  0
 32 34  4  0  0  0
 34 35  4  0  0  0
 35 36  4  0  0  0
 36 37  4  0  0  0
 37 31  4  0  0  0
 31 33  4  0  0  0
  2 38  1  0  0  0
  3 39  1  0  0  0
  4 40  1  0  0  0
  5 41  1  0  0  0
  8 42  1  0  0  0
  9 43  1  0  0  0
  9 44  1  0  0  0
 10 45  1  0  0  0
 10 46  1  0  0  0
 11 47  1  0  0  0
 15 48  1  0  0  0
 15 49  1  0  0  0
 16 50  1  0  0  0
 16 51  1  0  0  0
 17 52  1  0  0  0
 17 53  1  0  0  0
 18 54  1  0  0  0
 18 55  1  0  0  0
 19 56  1  0  0  0
 23 57  1  0  0  0
 23 58  1  0  0  0
 23 59  1  0  0  0
 24 60  1  0  0  0
 29 61  1  0  0  0
 30 62  1  0  0  0
 33 63  1  0  0  0
 34 64  1  0  0  0
 35 65  1  0  0  0
 36 66  1  0  0  0
 37 67  1  0  0  0
M  END
$$$$
