### 
### Created by X-TOOL on Mon Sep 10 21:12:48 2018
### 

@<TRIPOS>MOLECULE
1k1j_ligand
   68    71     1     0     0
SMALL
GAST_HUCK


@<TRIPOS>ATOM
      1 C65        -3.0350    5.6090   20.2470 C.ar      1 FD2        -0.0390
      2 C66        -3.6800    6.8610   20.1780 C.ar      1 FD2        -0.0549
      3 C64        -1.6740    5.5160   19.8930 C.ar      1 FD2        -0.0601
      4 C63        -0.9650    6.6510   19.4760 C.ar      1 FD2        -0.0686
      5 C62        -1.6110    7.8990   19.4040 C.ar      1 FD2        -0.0635
      6 C61        -2.9750    8.0140   19.7580 C.ar      1 FD2         0.0192
      7 C25        -3.6690    9.3600   19.6700 C.cat     1 FD2         0.2340
      8 N43        -2.9760   10.4020   19.2870 N.pl3     1 FD2        -0.2722
      9 N54        -4.9510    9.4660   19.9690 N.pl3     1 FD2        -0.2722
     10 C34        -3.8050    4.3610   20.7070 C.3       1 FD2         0.0179
     11 C31        -3.7930    4.1530   22.2540 C.3       1 FD2         0.1358
     12 C35        -2.4690    4.5140   22.9040 C.2       1 FD2         0.2023
     13 O36        -2.4170    5.6590   23.3450 O.2       1 FD2        -0.3946
     14 N81        -1.4140    3.6780   23.0210 N.am      1 FD2        -0.2712
     15 C71        -1.5090    2.3460   22.4450 C.3       1 FD2         0.0363
     16 C72        -1.0240    1.3160   23.4920 C.3       1 FD2        -0.0114
     17 C74         0.3360    3.1580   24.6370 C.3       1 FD2        -0.0114
     18 C75        -0.1640    4.1730   23.5710 C.3       1 FD2         0.0363
     19 C40         0.3750    1.7080   24.0550 C.3       1 FD2         0.0637
     20 C48         0.7960    0.8060   25.0540 C.2       1 FD2         0.2367
     21 O49         0.1850   -0.1870   25.4370 O.2       1 FD2        -0.3701
     22 O55         1.9990    1.1680   25.5360 O.3       1 FD2        -0.2800
     23 C99         2.1760    0.9340   26.9510 C.3       1 FD2         0.0658
     24 N29        -4.8630    4.9280   22.8860 N.am      1 FD2        -0.2235
     25 S12        -5.7780    4.2560   24.1930 S.o2      1 FD2         0.0706
     26 O32        -6.7940    5.2050   24.5670 O.2       1 FD2        -0.1501
     27 O33        -6.1130    2.9050   23.9020 O.2       1 FD2        -0.1501
     28 C2         -4.5700    4.2890   25.4220 C.ar      1 FD2         0.1089
     29 C3         -4.2840    5.5260   26.0170 C.ar      1 FD2        -0.0345
     30 C4         -3.3060    5.6250   27.0190 C.ar      1 FD2        -0.0522
     31 C9         -2.8900    3.2070   26.8370 C.ar      1 FD2        -0.0160
     32 C10        -2.6000    4.4590   27.4390 C.ar      1 FD2        -0.0178
     33 C1         -3.8950    3.1320   25.8170 C.ar      1 FD2        -0.0274
     34 C5         -1.6050    4.5230   28.4600 C.ar      1 FD2        -0.0540
     35 C6         -0.9040    3.3530   28.8800 C.ar      1 FD2        -0.0612
     36 C7         -1.2080    2.1070   28.2660 C.ar      1 FD2        -0.0612
     37 C8         -2.1910    2.0370   27.2620 C.ar      1 FD2        -0.0540
     38 H1         -4.7264    6.9411   20.4494 H         1 FD2         0.0556
     39 H2         -1.1706    4.5573   19.9437 H         1 FD2         0.0557
     40 H3          0.0822    6.5672   19.2087 H         1 FD2         0.0599
     41 H4         -1.0617    8.7742   19.0764 H         1 FD2         0.0559
     42 H5         -3.4281   11.3251   19.2206 H         1 FD2         0.3181
     43 H6         -1.9785   10.2990   19.0520 H         1 FD2         0.3181
     44 H7         -5.4804    8.6348   20.2687 H         1 FD2         0.3181
     45 H8         -5.4215   10.3799   19.9025 H         1 FD2         0.3181
     46 H9         -3.3503    3.4781   20.2341 H         1 FD2         0.0469
     47 H10        -4.8501    4.4562   20.3773 H         1 FD2         0.0469
     48 H11        -3.9799    3.0859   22.4446 H         1 FD2         0.0777
     49 H12        -0.8773    2.2856   21.5465 H         1 FD2         0.0524
     50 H13        -2.5537    2.1338   22.1738 H         1 FD2         0.0524
     51 H14        -0.9562    0.3258   23.0178 H         1 FD2         0.0313
     52 H15        -1.7469    1.2773   24.3202 H         1 FD2         0.0313
     53 H16         1.3483    3.4438   24.9588 H         1 FD2         0.0313
     54 H17        -0.3437    3.1804   25.5016 H         1 FD2         0.0313
     55 H18        -0.3267    5.1547   24.0397 H         1 FD2         0.0524
     56 H19         0.5831    4.2687   22.7693 H         1 FD2         0.0524
     57 H20         1.1018    1.6786   23.2298 H         1 FD2         0.0555
     58 H21         3.1827    1.2585   27.2532 H         1 FD2         0.0577
     59 H22         2.0577   -0.1389   27.1629 H         1 FD2         0.0577
     60 H23         1.4225    1.5043   27.5141 H         1 FD2         0.0577
     61 H24        -5.0664    5.8514   22.5604 H         1 FD2         0.1708
     62 H25        -4.8221    6.4123   25.7009 H         1 FD2         0.0637
     63 H26        -3.0878    6.5851   27.4724 H         1 FD2         0.0624
     64 H27        -4.1300    2.1804   25.3541 H         1 FD2         0.0643
     65 H28        -1.3779    5.4759   28.9241 H         1 FD2         0.0624
     66 H29        -0.1501    3.4134   29.6565 H         1 FD2         0.0618
     67 H30        -0.6817    1.2100   28.5719 H         1 FD2         0.0618
     68 H31        -2.4209    1.0814   26.8048 H         1 FD2         0.0624
@<TRIPOS>BOND
     1    1   10 1  
     2    1    3 ar 
     3    1    2 ar 
     4    2    6 ar 
     5    6    7 1  
     6    6    5 ar 
     7    5    4 ar 
     8    4    3 ar 
     9    7    9 ar 
    10    7    8 ar 
    11   10   11 1  
    12   11   24 1  
    13   11   12 1  
    14   12   14 am 
    15   12   13 2  
    16   14   18 1  
    17   14   15 1  
    18   15   16 1  
    19   16   19 1  
    20   19   17 1  
    21   19   20 1  
    22   20   22 1  
    23   20   21 2  
    24   22   23 1  
    25   17   18 1  
    26   24   25 am 
    27   25   28 1  
    28   25   27 2  
    29   25   26 2  
    30   28   33 ar 
    31   28   29 ar 
    32   29   30 ar 
    33   30   32 ar 
    34   32   31 ar 
    35   32   34 ar 
    36   34   35 ar 
    37   35   36 ar 
    38   36   37 ar 
    39   37   31 ar 
    40   31   33 ar 
    41    2   38 1  
    42    3   39 1  
    43    4   40 1  
    44    5   41 1  
    45    8   42 1  
    46    8   43 1  
    47    9   44 1  
    48    9   45 1  
    49   10   46 1  
    50   10   47 1  
    51   11   48 1  
    52   15   49 1  
    53   15   50 1  
    54   16   51 1  
    55   16   52 1  
    56   17   53 1  
    57   17   54 1  
    58   18   55 1  
    59   18   56 1  
    60   19   57 1  
    61   23   58 1  
    62   23   59 1  
    63   23   60 1  
    64   24   61 1  
    65   29   62 1  
    66   30   63 1  
    67   33   64 1  
    68   34   65 1  
    69   35   66 1  
    70   36   67 1  
    71   37   68 1  
@<TRIPOS>SUBSTRUCTURE
     1 FD2         1

